units(length='cm', time='s', quantity='mol', act_energy='kcal/mol')

ideal_gas(name='gas',
          elements="H D T C Ci O Oi N Ne Ar He Si S Cl X",
          species="""n-heptane   Ar          He          Ne
                     N2          C2H4(2)     C4H8-1(3)   C4H8-2(4)
                     C4H6(7)     C6H8(9)     C3H6(32)    H2(68)
                     C6H10d(84)  C8H12(102)  C8H10(113)  S(168)
                     S(171)      S(181)      S(185)      S(258)
                     S(278)      C8H12(809)  C7H10(851)  C7H8(979)
                     C5H8(1142)  S(1436)     S(1497)     S(1545)
                     S(1548)     S(1623)     S(1875)     S(1997)
                     S(2123)     S(2339)     CH4(2697)   C5H8(2701)
                     S(2719)     S(2730)     S(2732)     C2H6(2747)
                     S(2754)     S(2785)     S(2787)     S(2861)
                     S(3174)     S(3764)     S(3783)     S(3802)
                     S(4099)     S(5239)     S(5356)     S(5415)
                     S(6680)     S(6843)     S(7005)     S(7006)
                     S(8752)""",
          reactions='gas-*',
          initial_state=state(temperature=300.0, pressure=OneAtm))

ideal_interface(name='surface1',
                elements="H D T C Ci O Oi N Ne Ar He Si S Cl X",
                species="""X(1)        HX(5)       C2H3X(37)   allylX(38)
                          CH3X(39)    C2H5X(40)   C4H7X(41)   C4H7X(43)
                          C4H7X(44)   C3H5X(45)   C4H5X(80)   C4H5X(81)
                          C6H7X(132)  C6H7X(133)  C6H7X(134)  SX(313)
                          C6H7X(327)  SX(452)     SX(453)     SX(454)
                          SX(456)     SX(457)     SX(458)     SX(459)
                          SX(460)     SX(461)     SX(462)     SX(463)
                          SX(464)     SX(465)     SX(586)     SX(587)
                          SX(588)     SX(589)     SX(590)     SX(591)
                          SX(592)     SX(593)     SX(596)     SX(598)
                          C8H9X(666)  C8H9X(667)  C8H9X(668)  C8H9X(669)
                          SX(755)     SX(759)     SX(764)     SX(767)
                          SX(768)     SX(777)     SX(801)     C7H9X(803)
                          SX(860)     C6H9X(861)  SX(862)     SX(863)
                          SX(864)     SX(865)     SX(966)     SX(968)
                          C5H7X(971)  SX(1031)    SX(1032)    SX(1036)
                          SX(1088)    SX(1090)    SX(1136)    SX(1162)
                          SX(1163)    SX(1205)    SX(1206)    SX(1390)
                          SX(1398)    SX(1460)    SX(1464)    SX(1468)
                          SX(1472)    SX(1473)    SX(1478)    SX(1479)
                          SX(1480)    SX(1490)    SX(1649)    SX(1651)
                          SX(1652)    SX(1653)    SX(1654)    SX(1659)
                          SX(1903)    SX(1905)    SX(1906)    SX(1910)
                          SX(2299)    SX(2309)    SX(2321)    SX(2332)
                          SX(2334)    SX(2335)    SX(2459)    SX(2460)
                          SX(2462)    SX(2469)    SX(2470)    SX(2540)
                          SX(2651)    SX(2654)    SX(2658)    SX(2714)
                          SX(2986)    SX(3053)    SX(3055)    SX(3056)
                          SX(3057)    SX(3058)    SX(3059)    SX(3060)
                          SX(3061)    SX(3123)    SX(3128)    SX(3476)
                          SX(3477)    SX(3478)    SX(3479)    SX(3480)
                          SX(3481)    SX(3808)    SX(3851)    SX(3852)
                          SX(3853)    SX(3854)    SX(4085)    SX(4086)
                          SX(4199)    SX(4201)    SX(4202)    SX(4203)
                          SX(4204)    SX(4205)    SX(4206)    SX(4207)
                          SX(4208)    SX(4209)    SX(4528)    SX(4529)
                          SX(4963)    SX(4965)    SX(5068)    SX(5069)
                          SX(5074)    SX(5154)    SX(5155)    SX(5159)
                          SX(5210)    SX(5221)    SX(5222)    SX(5229)
                          SX(5352)    SX(5368)    SX(5369)    SX(5426)
                          SX(5427)    SX(5604)    SX(5606)    SX(5637)
                          SX(5638)    SX(5670)    SX(5710)    SX(5711)
                          SX(5975)    SX(5996)    SX(6063)    SX(6098)
                          SX(6099)    SX(6165)    SX(6166)    SX(6449)
                          SX(6480)    SX(6512)    SX(6544)    SX(6546)
                          SX(6636)    SX(6673)    SX(6787)    SX(6850)
                          SX(6851)    SX(6852)    SX(6853)    SX(6854)
                          SX(6855)    SX(6856)    SX(7002)    SX(7003)
                          SX(7008)    SX(7011)    SX(7039)    SX(7191)
                          SX(7215)    SX(7439)    SX(7440)    SX(7441)
                          SX(7442)    SX(7443)    SX(7531)    SX(7535)
                          SX(7536)    SX(7544)    SX(7558)    SX(7882)
                          SX(7885)    SX(8285)    SX(8693)    SX(8758)
                          SX(8759)    SX(8761)    SX(8763)    SX(8764)
                          SX(8884)    SX(8885)    SX(8986)    SX(8987)
                          SX(8988)    SX(8989)    SX(9356)    SX(9414)
                          SX(9417)    SX(9418)    SX(9496)    SX(9554)
                          SX(9555)    SX(9563)    SX(9572)    SX(9593)
                          SX(9596)    SX(9636)    SX(9900)    SX(9958)
                          SX(9961)    SX(9962)    SX(9979)""",
                site_density=2.72e-09,
                phases="gas",
          reactions='surface1-*',
                initial_state=state(temperature=300.0, pressure=OneAtm))

#-------------------------------------------------------------------------------
# Element data
#-------------------------------------------------------------------------------

element(symbol=u'X', atomic_mass=195.083)
element(symbol=u'Ci', atomic_mass=13.003)
element(symbol=u'D', atomic_mass=2.014)
element(symbol=u'Oi', atomic_mass=18.0)
element(symbol=u'T', atomic_mass=3.016)
#-------------------------------------------------------------------------------
# Species data
#-------------------------------------------------------------------------------

species(name=u'n-heptane',
        atoms='H:16 C:7',
        thermo=(NASA([100.00, 1262.73],
                     [-2.91681405E-03,  7.69373649E-02, -3.48025563E-05,
                       1.86095180E-09,  2.01573617E-12, -2.57829342E+04,
                       3.00312148E+01]),
                NASA([1262.73, 5000.00],
                     [ 1.38377915E+01,  4.85945016E-02, -1.95474548E-05,
                       3.52837178E-09, -2.39064676E-13, -3.05141556E+04,
                      -4.48642836E+01])))

species(name=u'Ar',
        atoms='Ar:1',
        thermo=(NASA([200.00, 1000.00],
                     [ 2.50000000E+00,  0.00000000E+00,  0.00000000E+00,
                       0.00000000E+00,  0.00000000E+00, -7.45375000E+02,
                       4.37967000E+00]),
                NASA([1000.00, 6000.00],
                     [ 2.50000000E+00,  0.00000000E+00,  0.00000000E+00,
                       0.00000000E+00,  0.00000000E+00, -7.45375000E+02,
                       4.37967000E+00])))

species(name=u'He',
        atoms='He:1',
        thermo=(NASA([200.00, 1000.00],
                     [ 2.50000000E+00,  0.00000000E+00,  0.00000000E+00,
                       0.00000000E+00,  0.00000000E+00, -7.45375000E+02,
                       9.28724000E-01]),
                NASA([1000.00, 6000.00],
                     [ 2.50000000E+00,  0.00000000E+00,  0.00000000E+00,
                       0.00000000E+00,  0.00000000E+00, -7.45375000E+02,
                       9.28724000E-01])))

species(name=u'Ne',
        atoms='Ne:1',
        thermo=(NASA([200.00, 1000.00],
                     [ 2.50000000E+00,  0.00000000E+00,  0.00000000E+00,
                       0.00000000E+00,  0.00000000E+00, -7.45375000E+02,
                       3.35532000E+00]),
                NASA([1000.00, 6000.00],
                     [ 2.50000000E+00,  0.00000000E+00,  0.00000000E+00,
                       0.00000000E+00,  0.00000000E+00, -7.45375000E+02,
                       3.35532000E+00])))

species(name=u'N2',
        atoms='N:2',
        thermo=(NASA([200.00, 1000.00],
                     [ 3.53101000E+00, -1.23661000E-04, -5.02999000E-07,
                       2.43531000E-09, -1.40881000E-12, -1.04698000E+03,
                       2.96747000E+00]),
                NASA([1000.00, 6000.00],
                     [ 2.95258000E+00,  1.39690000E-03, -4.92632000E-07,
                       7.86010000E-11, -4.60755000E-15, -9.23949000E+02,
                       5.87189000E+00])))

species(name=u'C2H4(2)',
        atoms='H:4 C:2',
        thermo=(NASA([100.00, 979.36],
                     [ 3.97471606E+00, -4.75844285E-03,  4.16783770E-05,
                      -4.51392516E-08,  1.54224761E-11,  4.91540746E+03,
                       3.62430844E+00]),
                NASA([979.36, 5000.00],
                     [ 3.55660610E+00,  1.10627464E-02, -4.17019079E-06,
                       7.85586770E-10, -5.70060829E-14,  4.32046489E+03,
                       2.17719479E+00])))

species(name=u'C4H8-1(3)',
        atoms='H:8 C:4',
        thermo=(NASA([100.00, 1007.28],
                     [ 2.58772906E+00,  2.32777969E-02,  1.93412349E-05,
                      -3.55496333E-08,  1.36906009E-11, -1.91872926E+03,
                       1.45750618E+01]),
                NASA([1007.28, 5000.00],
                     [ 7.20517168E+00,  2.36361568E-02, -9.03150028E-06,
                       1.65392666E-09, -1.16019260E-13, -3.79733937E+03,
                      -1.24426257E+01])))

species(name=u'C4H8-2(4)',
        atoms='H:8 C:4',
        thermo=(NASA([100.00, 1157.79],
                     [ 2.51998327E+00,  2.76812799E-02,  9.43783469E-07,
                      -1.25009101E-08,  4.67144666E-12, -3.34374767E+03,
                       1.30195623E+01]),
                NASA([1157.79, 5000.00],
                     [ 6.04225708E+00,  2.60072350E-02, -1.04843374E-05,
                       1.90880922E-09, -1.30600505E-13, -4.86276511E+03,
                      -7.52715109E+00])))

species(name=u'C4H6(7)',
        atoms='H:6 C:4',
        thermo=(NASA([100.00, 946.05],
                     [ 2.80599310E+00,  1.02584471E-02,  6.17260255E-05,
                      -9.01642687E-08,  3.59116961E-11,  1.16584972E+04,
                       1.20621434E+01]),
                NASA([946.05, 5000.00],
                     [ 1.24693720E+01,  1.00553901E-02, -2.41206872E-06,
                       4.57077303E-10, -3.93160571E-14,  8.01077795E+03,
                      -4.36374720E+01])))

species(name=u'C6H8(9)',
        atoms='H:8 C:6',
        thermo=(NASA([100.00, 941.22],
                     [ 1.38427980E+00,  4.14411503E-02,  1.94287417E-05,
                      -6.16688700E-08,  2.86503633E-11,  1.76317461E+04,
                       1.93257509E+01]),
                NASA([941.22, 5000.00],
                     [ 1.69619680E+01,  1.57221707E-02, -4.10118367E-06,
                       6.95736344E-10, -5.26521484E-14,  1.29061672E+04,
                      -6.44097553E+01])))

species(name=u'C3H6(32)',
        atoms='H:6 C:3',
        thermo=(NASA([100.00, 983.75],
                     [ 3.31912102E+00,  8.17958674E-03,  3.34736123E-05,
                      -4.36193684E-08,  1.58213364E-11,  7.49325328E+02,
                       9.54025058E+00]),
                NASA([983.75, 5000.00],
                     [ 5.36755173E+00,  1.70743019E-02, -6.35107626E-06,
                       1.16619529E-09, -8.27620279E-14, -4.87138326E+02,
                      -4.54467529E+00])))

species(name=u'H2(68)',
        atoms='H:2',
        thermo=(NASA([100.00, 1959.08],
                     [ 3.43536412E+00,  2.12710353E-04, -2.78625043E-07,
                       3.40267167E-10, -7.76031998E-14, -1.03135984E+03,
                      -3.90841732E+00]),
                NASA([1959.08, 5000.00],
                     [ 2.78816583E+00,  5.87640942E-04,  1.59010417E-07,
                      -5.52739026E-11,  4.34310984E-15, -5.96144270E+02,
                       1.12732655E-01])))

species(name=u'C6H10d(84)',
        atoms='H:10 C:6',
        thermo=(NASA([100.00, 969.70],
                     [ 2.39493639E+00,  1.31308716E-02,  1.02019898E-04,
                      -1.35266841E-07,  5.06735576E-11, -2.55363631E+03,
                       1.63461006E+01]),
                NASA([969.70, 5000.00],
                     [ 1.20193596E+01,  2.96991246E-02, -1.06504175E-05,
                       2.03502649E-09, -1.52378829E-13, -7.06570658E+03,
                      -4.34309725E+01])))

species(name=u'C8H12(102)',
        atoms='H:12 C:8',
        thermo=(NASA([100.00, 973.99],
                     [ 1.29290720E+00,  3.40987620E-02,  8.83250757E-05,
                      -1.34013150E-07,  5.20549907E-11,  6.25186440E+03,
                       2.49510784E+01]),
                NASA([973.99, 5000.00],
                     [ 1.61828450E+01,  3.65065469E-02, -1.32663093E-05,
                       2.52136923E-09, -1.87069022E-13,  3.36603553E+02,
                      -6.19680596E+01])))

species(name=u'C8H10(113)',
        atoms='H:10 C:8',
        thermo=(NASA([100.00, 941.38],
                     [ 8.64508879E-02,  6.59507123E-02,  1.49007776E-06,
                      -6.06862449E-08,  3.13845046E-11,  2.39088929E+04,
                       2.66192822E+01]),
                NASA([941.38, 5000.00],
                     [ 2.28417755E+01,  1.96704891E-02, -5.08803462E-06,
                       8.53682038E-10, -6.42382395E-14,  1.73909786E+04,
                      -9.36509497E+01])))

species(name=u'S(168)',
        atoms='H:14 C:10',
        thermo=(NASA([100.00, 1000.82],
                     [-6.31768052E-02,  6.63327958E-02,  3.52866104E-05,
                      -8.69374671E-08,  3.59821837E-11,  1.49219107E+04,
                       3.14585536E+01]),
                NASA([1000.82, 5000.00],
                     [ 1.83633542E+01,  4.74202731E-02, -1.83998113E-05,
                       3.46693133E-09, -2.49801392E-13,  8.49241227E+03,
                      -7.11484830E+01])))

species(name=u'S(171)',
        atoms='H:14 C:10',
        thermo=(NASA([100.00, 970.10],
                     [-9.78988949E-03,  5.86706729E-02,  7.01434593E-05,
                      -1.32675939E-07,  5.46186119E-11,  1.25292176E+04,
                       3.22617600E+01]),
                NASA([970.10, 5000.00],
                     [ 2.20659649E+01,  4.04480551E-02, -1.42487489E-05,
                       2.67818961E-09, -1.98556600E-13,  4.82039373E+03,
                      -9.12271962E+01])))

species(name=u'S(181)',
        atoms='H:16 C:12',
        thermo=(NASA([100.00, 985.43],
                     [-1.88304682E+00,  1.07042194E-01, -2.70554103E-05,
                      -4.30549514E-08,  2.47781880E-11,  4.00783494E+04,
                       4.74620913E+01]),
                NASA([985.43, 5000.00],
                     [ 2.44922294E+01,  5.06805346E-02, -1.84366585E-05,
                       3.32433721E-09, -2.33631810E-13,  3.24185269E+04,
                      -9.18863874E+01])))

species(name=u'S(185)',
        atoms='H:16 C:12',
        thermo=(NASA([100.00, 992.45],
                     [-1.36726188E+00,  9.09276671E-02,  1.69902518E-05,
                      -8.53947805E-08,  3.84301239E-11,  2.11993195E+04,
                       3.87738109E+01]),
                NASA([992.45, 5000.00],
                     [ 2.42201531E+01,  5.14040751E-02, -1.94056379E-05,
                       3.62910452E-09, -2.61722320E-13,  1.29880616E+04,
                      -1.00257920E+02])))

species(name=u'S(258)',
        atoms='H:16 C:12',
        thermo=(NASA([100.00, 1082.71],
                     [-1.42165646E+00,  1.00366054E-01, -2.86690015E-05,
                      -2.45430021E-08,  1.37134617E-11,  2.67269131E+04,
                       3.45501008E+01]),
                NASA([1082.71, 5000.00],
                     [ 1.94956582E+01,  6.02181764E-02, -2.44875026E-05,
                       4.55572743E-09, -3.18938634E-13,  2.00211421E+04,
                      -7.80762928E+01])))

species(name=u'S(278)',
        atoms='H:16 C:12',
        thermo=(NASA([100.00, 967.86],
                     [-1.32209228E+00,  8.47378361E-02,  4.59787499E-05,
                      -1.23781967E-07,  5.42497769E-11,  2.23199283E+04,
                       3.57020946E+01]),
                NASA([967.86, 5000.00],
                     [ 2.71811605E+01,  4.57697461E-02, -1.58000646E-05,
                       2.92345730E-09, -2.14846023E-13,  1.31102045E+04,
                      -1.19952912E+02])))

species(name=u'C8H12(809)',
        atoms='H:12 C:8',
        thermo=(NASA([100.00, 966.56],
                     [-1.28183216E-01,  7.35572918E-02, -1.44333618E-05,
                      -3.89698452E-08,  2.17299794E-11,  1.04422483E+04,
                       2.89601759E+01]),
                NASA([966.56, 5000.00],
                     [ 2.02785414E+01,  2.99584765E-02, -1.01704686E-05,
                       1.81720743E-09, -1.29537878E-13,  4.58909334E+03,
                      -7.86679341E+01])))

species(name=u'C7H10(851)',
        atoms='H:10 C:7',
        thermo=(NASA([100.00, 960.58],
                     [ 5.40181259E-01,  6.14551349E-02, -1.12030877E-05,
                      -3.44223146E-08,  1.91302393E-11,  1.31395193E+04,
                       2.36489181E+01]),
                NASA([960.58, 5000.00],
                     [ 1.78943603E+01,  2.43013009E-02, -8.01425042E-06,
                       1.41741320E-09, -1.01048701E-13,  8.18561381E+03,
                      -6.78088657E+01])))

species(name=u'C7H8(979)',
        atoms='H:8 C:7',
        thermo=(NASA([100.00, 966.81],
                     [ 1.90138903E+00,  2.67868079E-02,  6.30523366E-05,
                      -9.95224287E-08,  3.94205761E-11,  1.54781489E+04,
                       1.80530900E+01]),
                NASA([966.81, 5000.00],
                     [ 1.41488720E+01,  2.45164605E-02, -8.51969957E-06,
                       1.61189695E-09, -1.20790154E-13,  1.08478608E+04,
                      -5.23192761E+01])))

species(name=u'C5H8(1142)',
        atoms='H:8 C:5',
        thermo=(NASA([100.00, 1049.25],
                     [ 2.01062155E+00,  3.15407187E-02,  2.07789480E-05,
                      -4.44088985E-08,  1.72419112E-11,  7.01383967E+03,
                       1.65768346E+01]),
                NASA([1049.25, 5000.00],
                     [ 1.14809937E+01,  2.45641673E-02, -1.08867259E-05,
                       2.16707025E-09, -1.59145781E-13,  3.42314914E+03,
                      -3.72078866E+01])))

species(name=u'S(1436)',
        atoms='H:14 C:10',
        thermo=(NASA([100.00, 961.89],
                     [-1.42693031E+00,  9.80798513E-02, -3.24289130E-05,
                      -3.78943330E-08,  2.44147904E-11,  1.67194334E+04,
                       3.62568687E+01]),
                NASA([961.89, 5000.00],
                     [ 2.61537984E+01,  3.39139966E-02, -1.11612519E-05,
                       1.97604397E-09, -1.41195490E-13,  9.07598537E+03,
                      -1.07883190E+02])))

species(name=u'S(1497)',
        atoms='H:16 C:12',
        thermo=(NASA([100.00, 990.56],
                     [-1.32892162E+00,  8.56175091E-02,  4.02422312E-05,
                      -1.13041663E-07,  4.85846312E-11,  2.10166900E+04,
                       3.92285904E+01]),
                NASA([990.56, 5000.00],
                     [ 2.63931502E+01,  4.91374623E-02, -1.87932792E-05,
                       3.60169126E-09, -2.65302821E-13,  1.18222932E+04,
                      -1.12939530E+02])))

species(name=u'S(1545)',
        atoms='H:16 C:12',
        thermo=(NASA([100.00, 911.83],
                     [-1.33567750E+00,  4.62975801E-02,  2.34436127E-04,
                      -3.86184949E-07,  1.66340045E-10,  2.18115000E+04,
                       4.06045305E+01]),
                NASA([911.83, 5000.00],
                     [ 5.29589683E+01, -6.38869939E-03,  1.59664626E-05,
                      -3.35908785E-09,  2.12545105E-13,  4.19870290E+03,
                      -2.58608841E+02])))

species(name=u'S(1548)',
        atoms='H:16 C:12',
        thermo=(NASA([100.00, 911.83],
                     [-1.33567750E+00,  4.62975801E-02,  2.34436127E-04,
                      -3.86184949E-07,  1.66340045E-10,  2.18115000E+04,
                       4.06045305E+01]),
                NASA([911.83, 5000.00],
                     [ 5.29589683E+01, -6.38869939E-03,  1.59664626E-05,
                      -3.35908785E-09,  2.12545105E-13,  4.19870290E+03,
                      -2.58608841E+02])))

species(name=u'S(1623)',
        atoms='H:16 C:12',
        thermo=(NASA([100.00, 1116.84],
                     [-2.83914121E+00,  1.32719140E-01, -1.00112287E-04,
                       3.34525043E-08, -2.86099054E-12,  1.91762850E+04,
                       2.64659394E+01]),
                NASA([1116.84, 5000.00],
                     [ 2.66403282E+01,  4.98849225E-02, -1.94111630E-05,
                       3.51696406E-09, -2.42247815E-13,  1.11728250E+04,
                      -1.25364380E+02])))

species(name=u'S(1875)',
        atoms='H:16 C:12',
        thermo=(NASA([100.00, 1004.10],
                     [-2.44553935E+00,  1.19460113E-01, -5.42113342E-05,
                      -1.98307234E-08,  1.72938269E-11,  1.92327184E+04,
                       2.74324710E+01]),
                NASA([1004.10, 5000.00],
                     [ 2.76168334E+01,  4.73830923E-02, -1.77675099E-05,
                       3.26559277E-09, -2.31661894E-13,  1.07919335E+04,
                      -1.29693334E+02])))

species(name=u'S(1997)',
        atoms='H:16 C:12',
        thermo=(NASA([100.00, 1021.52],
                     [-2.55916555E+00,  1.23979943E-01, -6.98889289E-05,
                      -1.71652057E-09,  1.04672407E-11,  2.00472815E+04,
                       2.60045113E+01]),
                NASA([1021.52, 5000.00],
                     [ 2.69714964E+01,  4.86652111E-02, -1.85023371E-05,
                       3.38660979E-09, -2.38029200E-13,  1.19103907E+04,
                      -1.27389367E+02])))

species(name=u'S(2123)',
        atoms='H:16 C:12',
        thermo=(NASA([100.00, 973.24],
                     [-2.63483510E+00,  1.20227177E-01, -4.37619151E-05,
                      -4.01169398E-08,  2.69301425E-11,  1.73414808E+04,
                       2.60308394E+01]),
                NASA([973.24, 5000.00],
                     [ 3.09677045E+01,  4.16451784E-02, -1.43895481E-05,
                       2.60642050E-09, -1.87344303E-13,  7.98180084E+03,
                      -1.49653222E+02])))

species(name=u'S(2339)',
        atoms='H:12 C:8',
        thermo=(NASA([100.00, 966.56],
                     [-1.28183216E-01,  7.35572918E-02, -1.44333618E-05,
                      -3.89698452E-08,  2.17299794E-11,  1.04422483E+04,
                       2.89601759E+01]),
                NASA([966.56, 5000.00],
                     [ 2.02785414E+01,  2.99584765E-02, -1.01704686E-05,
                       1.81720743E-09, -1.29537878E-13,  4.58909334E+03,
                      -7.86679341E+01])))

species(name=u'CH4(2697)',
        atoms='H:4 C:1',
        thermo=(NASA([100.00, 1084.12],
                     [ 4.20541524E+00, -5.35557362E-03,  2.51123265E-05,
                      -2.13762843E-08,  5.97523937E-12, -1.01619433E+04,
                      -9.21279283E-01]),
                NASA([1084.12, 5000.00],
                     [ 9.08265721E-01,  1.14540858E-02, -4.57173828E-06,
                       8.29191671E-10, -5.66314895E-14, -9.71997444E+03,
                       1.39930944E+01])))

species(name=u'C5H8(2701)',
        atoms='H:8 C:5',
        thermo=(NASA([100.00, 1004.86],
                     [ 1.98273955E+00,  3.49998332E-02,  6.98515281E-06,
                      -3.05031334E-08,  1.32246652E-11,  6.96521034E+03,
                       1.60818191E+01]),
                NASA([1004.86, 5000.00],
                     [ 1.01246420E+01,  2.42323877E-02, -9.24886971E-06,
                       1.70115950E-09, -1.20059732E-13,  4.23624320E+03,
                      -2.86745770E+01])))

species(name=u'S(2719)',
        atoms='H:10 C:6',
        thermo=(NASA([100.00, 1045.42],
                     [ 1.54967147E+00,  4.21895837E-02,  1.04895346E-05,
                      -3.69750926E-08,  1.50988524E-11,  6.71774665E+03,
                       2.39491991E+01]),
                NASA([1045.42, 5000.00],
                     [ 1.12124240E+01,  3.19133588E-02, -1.30691489E-05,
                       2.47430092E-09, -1.76160956E-13,  3.23863001E+03,
                      -3.00742335E+01])))

species(name=u'S(2730)',
        atoms='H:14 C:9',
        thermo=(NASA([100.00, 994.73],
                     [-9.92774361E-01,  9.38016346E-02, -4.58023701E-05,
                      -1.08977317E-08,  1.19292688E-11,  5.95090696E+03,
                       3.26643004E+01]),
                NASA([994.73, 5000.00],
                     [ 2.13698347E+01,  3.82719243E-02, -1.39321680E-05,
                       2.50344607E-09, -1.75014812E-13, -1.99685295E+02,
                      -8.36575092E+01])))

species(name=u'S(2732)',
        atoms='H:14 C:9',
        thermo=(NASA([100.00, 994.73],
                     [-9.92774361E-01,  9.38016346E-02, -4.58023701E-05,
                      -1.08977317E-08,  1.19292688E-11,  5.95090696E+03,
                       3.26643004E+01]),
                NASA([994.73, 5000.00],
                     [ 2.13698347E+01,  3.82719243E-02, -1.39321680E-05,
                       2.50344607E-09, -1.75014812E-13, -1.99685295E+02,
                      -8.36575092E+01])))

species(name=u'C2H6(2747)',
        atoms='H:6 C:2',
        thermo=(NASA([100.00, 1012.42],
                     [ 3.72239291E+00,  1.65083841E-03,  3.44175530E-05,
                      -3.76858229E-08,  1.24450657E-11, -1.15575901E+04,
                       4.68247999E+00]),
                NASA([1012.42, 5000.00],
                     [ 2.82848257E+00,  1.73040568E-02, -6.73334245E-06,
                       1.23742024E-09, -8.65676410E-14, -1.19978080E+04,
                       5.93811707E+00])))

species(name=u'S(2754)',
        atoms='H:10 C:6',
        thermo=(NASA([100.00, 1020.63],
                     [ 9.97427413E-01,  5.59777045E-02, -2.05880600E-05,
                      -1.17182304E-08,  8.13452041E-12,  6.30749855E+03,
                       2.38941836E+01]),
                NASA([1020.63, 5000.00],
                     [ 1.33828218E+01,  2.83661253E-02, -1.07663110E-05,
                       1.95749020E-09, -1.36589418E-13,  2.68926840E+03,
                      -4.14511818E+01])))

species(name=u'S(2785)',
        atoms='H:16 C:10',
        thermo=(NASA([100.00, 996.21],
                     [-1.66222393E+00,  1.05913735E-01, -4.90518701E-05,
                      -1.54471216E-08,  1.45435417E-11,  3.25368421E+03,
                       3.72864712E+01]),
                NASA([996.21, 5000.00],
                     [ 2.37730101E+01,  4.38978636E-02, -1.60708071E-05,
                       2.89916239E-09, -2.03170384E-13, -3.80453052E+03,
                      -9.53173115E+01])))

species(name=u'S(2787)',
        atoms='H:16 C:10',
        thermo=(NASA([100.00, 996.21],
                     [-1.66222393E+00,  1.05913735E-01, -4.90518701E-05,
                      -1.54471216E-08,  1.45435417E-11,  3.25368421E+03,
                       3.79796184E+01]),
                NASA([996.21, 5000.00],
                     [ 2.37730101E+01,  4.38978636E-02, -1.60708071E-05,
                       2.89916239E-09, -2.03170384E-13, -3.80453052E+03,
                      -9.46241644E+01])))

species(name=u'S(2861)',
        atoms='H:14 C:8',
        thermo=(NASA([100.00, 1014.29],
                     [-3.67121846E-01,  8.14233516E-02, -3.11110886E-05,
                      -1.65487757E-08,  1.19185866E-11, -3.02333684E+03,
                       3.00035003E+01]),
                NASA([1014.29, 5000.00],
                     [ 1.79686767E+01,  3.98264136E-02, -1.50150741E-05,
                       2.72531006E-09, -1.90287561E-13, -8.32275149E+03,
                      -6.65042554E+01])))

species(name=u'S(3174)',
        atoms='H:12 C:8',
        thermo=(NASA([100.00, 1086.85],
                     [ 4.16666707E-01,  6.71551541E-02, -2.11380215E-05,
                      -1.29841076E-08,  7.80074417E-12,  1.12931799E+04,
                       2.75110729E+01]),
                NASA([1086.85, 5000.00],
                     [ 1.33702771E+01,  4.16858848E-02, -1.66324643E-05,
                       3.04995240E-09, -2.11355555E-13,  7.16599721E+03,
                      -4.20947236E+01])))

species(name=u'S(3764)',
        atoms='H:12 C:7',
        thermo=(NASA([100.00, 1016.70],
                     [ 3.01260003E-01,  6.93239326E-02, -2.79061455E-05,
                      -1.19417116E-08,  9.27990587E-12, -3.26068174E+02,
                       2.53851511E+01]),
                NASA([1016.70, 5000.00],
                     [ 1.55703568E+01,  3.41922940E-02, -1.28717489E-05,
                       2.32849221E-09, -1.62040961E-13, -4.71997327E+03,
                      -5.48718412E+01])))

species(name=u'S(3783)',
        atoms='H:16 C:12',
        thermo=(NASA([100.00, 965.51],
                     [-1.48010848E+00,  8.73195699E-02,  4.32084939E-05,
                      -1.24323023E-07,  5.52324518E-11,  1.86240551E+04,
                       3.89687652E+01]),
                NASA([965.51, 5000.00],
                     [ 2.86828957E+01,  4.34912924E-02, -1.47497714E-05,