units(length='cm', time='s', quantity='mol', act_energy='kcal/mol')

ideal_gas(name='gas',
          elements="H D T C Ci O Oi N Ne Ar He Si S Cl X",
          species="""n-heptane   Ar          He          Ne
                     N2          C2H4(2)     C4H8-1(3)   C4H8-2(4)
                     C4H6(7)     C6H8(9)     H2(68)      C4H6a(79)
                     C6H10d(84)  C8H10(113)  C6H9(136)   S(163)
                     S(181)      S(185)      S(189)      C6H8(196)
                     S(244)      S(264)      S(301)      S(650)
                     S(660)      S(661)      S(675)      S(686)
                     S(1243)     S(1251)     S(1353)     S(1391)
                     S(2502)     S(2524)     S(2540)     S(2561)
                     S(3243)     S(3455)     S(3883)     C2H6(3973)
                     S(4045)""",
          reactions='gas-*',
          initial_state=state(temperature=300.0, pressure=OneAtm))

ideal_interface(name='surface1',
                elements="H D T C Ci O Oi N Ne Ar He Si S Cl X",
                species="""X(1)        HX(5)       C2H3X(37)   C2H5X(40)
                          C4H5X(80)   C4H5X(81)   C6H9X(159)  C6H9X(192)
                          SX(407)     SX(409)     SX(410)     SX(412)
                          SX(413)     SX(415)     SX(1384)    SX(1385)
                          SX(1804)    SX(1808)    SX(1958)    SX(1960)
                          SX(2204)    SX(2234)    SX(2235)    SX(2248)
                          SX(2249)    SX(2254)    SX(2255)    SX(2256)
                          SX(2268)    SX(2275)    SX(2321)    SX(2322)
                          SX(2329)    SX(2330)    SX(2343)    SX(2344)
                          SX(2347)    SX(2348)    SX(2349)    SX(2355)
                          SX(2356)    SX(2357)    SX(2361)    SX(2366)
                          SX(2381)    SX(2384)    SX(2385)    SX(2387)
                          SX(2388)    SX(2391)    SX(2500)    SX(2501)
                          SX(2523)    SX(2634)    SX(2638)    SX(2767)
                          SX(2768)    SX(2772)    SX(2773)    SX(2780)
                          SX(2784)    SX(2790)    SX(2791)    SX(2795)
                          SX(2799)    SX(2814)    SX(2815)    SX(2896)
                          SX(3056)    SX(3071)    SX(3072)    SX(3096)
                          SX(3110)    SX(3111)    SX(3134)    SX(3147)
                          SX(3435)    SX(3814)    SX(3815)    SX(3827)
                          SX(3828)    SX(3869)    SX(3870)    SX(3941)
                          SX(3942)    SX(3957)""",
                site_density=2.72e-09,
                phases="gas",
          reactions='surface1-*',
                initial_state=state(temperature=300.0, pressure=OneAtm))

#-------------------------------------------------------------------------------
# Element data
#-------------------------------------------------------------------------------

element(symbol=u'X', atomic_mass=195.083)
element(symbol=u'Ci', atomic_mass=13.003)
element(symbol=u'D', atomic_mass=2.014)
element(symbol=u'Oi', atomic_mass=18.0)
element(symbol=u'T', atomic_mass=3.016)
#-------------------------------------------------------------------------------
# Species data
#-------------------------------------------------------------------------------

species(name=u'n-heptane',
        atoms='H:16 C:7',
        thermo=(NASA([100.00, 1262.73],
                     [-2.91681405E-03,  7.69373649E-02, -3.48025563E-05,
                       1.86095180E-09,  2.01573617E-12, -2.57829342E+04,
                       3.00312148E+01]),
                NASA([1262.73, 5000.00],
                     [ 1.38377915E+01,  4.85945016E-02, -1.95474548E-05,
                       3.52837178E-09, -2.39064676E-13, -3.05141556E+04,
                      -4.48642836E+01])))

species(name=u'Ar',
        atoms='Ar:1',
        thermo=(NASA([200.00, 1000.00],
                     [ 2.50000000E+00,  0.00000000E+00,  0.00000000E+00,
                       0.00000000E+00,  0.00000000E+00, -7.45375000E+02,
                       4.37967000E+00]),
                NASA([1000.00, 6000.00],
                     [ 2.50000000E+00,  0.00000000E+00,  0.00000000E+00,
                       0.00000000E+00,  0.00000000E+00, -7.45375000E+02,
                       4.37967000E+00])))

species(name=u'He',
        atoms='He:1',
        thermo=(NASA([200.00, 1000.00],
                     [ 2.50000000E+00,  0.00000000E+00,  0.00000000E+00,
                       0.00000000E+00,  0.00000000E+00, -7.45375000E+02,
                       9.28724000E-01]),
                NASA([1000.00, 6000.00],
                     [ 2.50000000E+00,  0.00000000E+00,  0.00000000E+00,
                       0.00000000E+00,  0.00000000E+00, -7.45375000E+02,
                       9.28724000E-01])))

species(name=u'Ne',
        atoms='Ne:1',
        thermo=(NASA([200.00, 1000.00],
                     [ 2.50000000E+00,  0.00000000E+00,  0.00000000E+00,
                       0.00000000E+00,  0.00000000E+00, -7.45375000E+02,
                       3.35532000E+00]),
                NASA([1000.00, 6000.00],
                     [ 2.50000000E+00,  0.00000000E+00,  0.00000000E+00,
                       0.00000000E+00,  0.00000000E+00, -7.45375000E+02,
                       3.35532000E+00])))

species(name=u'N2',
        atoms='N:2',
        thermo=(NASA([200.00, 1000.00],
                     [ 3.53101000E+00, -1.23661000E-04, -5.02999000E-07,
                       2.43531000E-09, -1.40881000E-12, -1.04698000E+03,
                       2.96747000E+00]),
                NASA([1000.00, 6000.00],
                     [ 2.95258000E+00,  1.39690000E-03, -4.92632000E-07,
                       7.86010000E-11, -4.60755000E-15, -9.23949000E+02,
                       5.87189000E+00])))

species(name=u'C2H4(2)',
        atoms='H:4 C:2',
        thermo=(NASA([100.00, 979.36],
                     [ 3.97471606E+00, -4.75844285E-03,  4.16783770E-05,
                      -4.51392516E-08,  1.54224761E-11,  4.91540746E+03,
                       3.62430844E+00]),
                NASA([979.36, 5000.00],
                     [ 3.55660610E+00,  1.10627464E-02, -4.17019079E-06,
                       7.85586770E-10, -5.70060829E-14,  4.32046489E+03,
                       2.17719479E+00])))

species(name=u'C4H8-1(3)',
        atoms='H:8 C:4',
        thermo=(NASA([100.00, 1007.28],
                     [ 2.58772906E+00,  2.32777969E-02,  1.93412349E-05,
                      -3.55496333E-08,  1.36906009E-11, -1.91872926E+03,
                       1.45750618E+01]),
                NASA([1007.28, 5000.00],
                     [ 7.20517168E+00,  2.36361568E-02, -9.03150028E-06,
                       1.65392666E-09, -1.16019260E-13, -3.79733937E+03,
                      -1.24426257E+01])))

species(name=u'C4H8-2(4)',
        atoms='H:8 C:4',
        thermo=(NASA([100.00, 1157.79],
                     [ 2.51998327E+00,  2.76812799E-02,  9.43783469E-07,
                      -1.25009101E-08,  4.67144666E-12, -3.34374767E+03,
                       1.30195623E+01]),
                NASA([1157.79, 5000.00],
                     [ 6.04225708E+00,  2.60072350E-02, -1.04843374E-05,
                       1.90880922E-09, -1.30600505E-13, -4.86276511E+03,
                      -7.52715109E+00])))

species(name=u'C4H6(7)',
        atoms='H:6 C:4',
        thermo=(NASA([100.00, 946.05],
                     [ 2.80599310E+00,  1.02584471E-02,  6.17260255E-05,
                      -9.01642687E-08,  3.59116961E-11,  1.16584972E+04,
                       1.20621434E+01]),
                NASA([946.05, 5000.00],
                     [ 1.24693720E+01,  1.00553901E-02, -2.41206872E-06,
                       4.57077303E-10, -3.93160571E-14,  8.01077795E+03,
                      -4.36374720E+01])))

species(name=u'C6H8(9)',
        atoms='H:8 C:6',
        thermo=(NASA([100.00, 941.22],
                     [ 1.38427980E+00,  4.14411503E-02,  1.94287417E-05,
                      -6.16688700E-08,  2.86503633E-11,  1.76317461E+04,
                       1.93257509E+01]),
                NASA([941.22, 5000.00],
                     [ 1.69619680E+01,  1.57221707E-02, -4.10118367E-06,
                       6.95736344E-10, -5.26521484E-14,  1.29061672E+04,
                      -6.44097553E+01])))

species(name=u'H2(68)',
        atoms='H:2',
        thermo=(NASA([100.00, 1959.08],
                     [ 3.43536412E+00,  2.12710353E-04, -2.78625043E-07,
                       3.40267167E-10, -7.76031998E-14, -1.03135984E+03,
                      -3.90841732E+00]),
                NASA([1959.08, 5000.00],
                     [ 2.78816583E+00,  5.87640942E-04,  1.59010417E-07,
                      -5.52739026E-11,  4.34310984E-15, -5.96144270E+02,
                       1.12732655E-01])))

species(name=u'C4H6a(79)',
        atoms='H:6 C:4',
        thermo=(NASA([100.00, 950.38],
                     [ 3.41327601E+00, -4.60830638E-03,  9.57205603E-05,
                      -1.18800574E-07,  4.44495312E-11,  1.74039828E+04,
                       1.01517556E+01]),
                NASA([950.38, 5000.00],
                     [ 9.72156091E+00,  1.36879055E-02, -3.93842260E-06,
                       7.58710118E-10, -6.16013131E-14,  1.41795804E+04,
                      -3.06164436E+01])))

species(name=u'C6H10d(84)',
        atoms='H:10 C:6',
        thermo=(NASA([100.00, 969.70],
                     [ 2.39493639E+00,  1.31308716E-02,  1.02019898E-04,
                      -1.35266841E-07,  5.06735576E-11, -2.55363631E+03,
                       1.63461006E+01]),
                NASA([969.70, 5000.00],
                     [ 1.20193596E+01,  2.96991246E-02, -1.06504175E-05,
                       2.03502649E-09, -1.52378829E-13, -7.06570658E+03,
                      -4.34309725E+01])))

species(name=u'C8H10(113)',
        atoms='H:10 C:8',
        thermo=(NASA([100.00, 941.38],
                     [ 8.64508879E-02,  6.59507123E-02,  1.49007776E-06,
                      -6.06862449E-08,  3.13845046E-11,  2.39088929E+04,
                       2.66192822E+01]),
                NASA([941.38, 5000.00],
                     [ 2.28417755E+01,  1.96704891E-02, -5.08803462E-06,
                       8.53682038E-10, -6.42382395E-14,  1.73909786E+04,
                      -9.36509497E+01])))

species(name=u'C6H9(136)',
        atoms='H:9 C:6',
        thermo=(NASA([100.00, 995.34],
                     [ 1.62522454E+00,  3.93401586E-02,  1.78978273E-05,
                      -4.78993847E-08,  2.01402388E-11,  1.69431093E+04,
                       2.25224222E+01]),
                NASA([995.34, 5000.00],
                     [ 1.22021413E+01,  2.74567638E-02, -1.03424270E-05,
                       1.92565312E-09, -1.38069748E-13,  1.33207104E+04,
                      -3.60755769E+01])))

species(name=u'S(163)',
        atoms='H:14 C:10',
        thermo=(NASA([100.00, 1005.33],
                     [-8.70330413E-01,  8.89793335E-02, -2.38552724E-05,
                      -3.15628111E-08,  1.81664076E-11,  3.78335548E+04,
                       4.06086741E+01]),
                NASA([1005.33, 5000.00],
                     [ 2.02610588E+01,  4.45995858E-02, -1.68699763E-05,
                       3.08363695E-09, -2.16972192E-13,  3.15786714E+04,
                      -7.14276628E+01])))

species(name=u'S(181)',
        atoms='H:16 C:12',
        thermo=(NASA([100.00, 985.43],
                     [-1.88304682E+00,  1.07042194E-01, -2.70554103E-05,
                      -4.30549514E-08,  2.47781880E-11,  4.00783494E+04,
                       4.74620913E+01]),
                NASA([985.43, 5000.00],
                     [ 2.44922294E+01,  5.06805346E-02, -1.84366585E-05,
                       3.32433721E-09, -2.33631810E-13,  3.24185269E+04,
                      -9.18863874E+01])))

species(name=u'S(185)',
        atoms='H:16 C:12',
        thermo=(NASA([100.00, 992.45],
                     [-1.36726188E+00,  9.09276671E-02,  1.69902518E-05,
                      -8.53947805E-08,  3.84301239E-11,  2.11993195E+04,
                       3.87738109E+01]),
                NASA([992.45, 5000.00],
                     [ 2.42201531E+01,  5.14040751E-02, -1.94056379E-05,
                       3.62910452E-09, -2.61722320E-13,  1.29880616E+04,
                      -1.00257920E+02])))

species(name=u'S(189)',
        atoms='H:16 C:12',
        thermo=(NASA([100.00, 961.97],
                     [-1.50816176E+00,  8.75229397E-02,  4.32196782E-05,
                      -1.26059866E-07,  5.63926918E-11,  3.17299871E+04,
                       4.22614545E+01]),
                NASA([961.97, 5000.00],
                     [ 2.93787122E+01,  4.15661279E-02, -1.37239862E-05,
                       2.52954162E-09, -1.88135179E-13,  2.19715065E+04,
                      -1.25386845E+02])))

species(name=u'C6H8(196)',
        atoms='H:8 C:6',
        thermo=(NASA([100.00, 972.94],
                     [ 1.82686070E+00,  3.47046353E-02,  2.41070171E-05,
                      -5.44847920E-08,  2.29388832E-11,  1.99100661E+04,
                       1.81393315E+01]),
                NASA([972.94, 5000.00],
                     [ 1.21686202E+01,  2.40472785E-02, -8.58151834E-06,
                       1.57034031E-09, -1.12795334E-13,  1.63897115E+04,
                      -3.92195169E+01])))

species(name=u'S(244)',
        atoms='H:16 C:12',
        thermo=(NASA([100.00, 1082.71],
                     [-1.42165646E+00,  1.00366054E-01, -2.86690015E-05,
                      -2.45430021E-08,  1.37134617E-11,  2.67269131E+04,
                       3.45501008E+01]),
                NASA([1082.71, 5000.00],
                     [ 1.94956582E+01,  6.02181764E-02, -2.44875026E-05,
                       4.55572743E-09, -3.18938634E-13,  2.00211421E+04,
                      -7.80762928E+01])))

species(name=u'S(264)',
        atoms='H:16 C:12',
        thermo=(NASA([100.00, 967.86],
                     [-1.32209228E+00,  8.47378361E-02,  4.59787499E-05,
                      -1.23781967E-07,  5.42497769E-11,  2.23199283E+04,
                       3.57020946E+01]),
                NASA([967.86, 5000.00],
                     [ 2.71811605E+01,  4.57697461E-02, -1.58000646E-05,
                       2.92345730E-09, -2.14846023E-13,  1.31102045E+04,
                      -1.19952912E+02])))

species(name=u'S(301)',
        atoms='H:15 C:12',
        thermo=(NASA([100.00, 993.54],
                     [-1.21346258E+00,  8.43526020E-02,  3.95110756E-05,
                      -1.09218661E-07,  4.65596299E-11,  3.07992502E+04,
                       3.58638913E+01]),
                NASA([993.54, 5000.00],
                     [ 2.48582341E+01,  5.15640076E-02, -1.99549339E-05,
                       3.80148454E-09, -2.77628001E-13,  2.20562691E+04,
                      -1.07675478E+02])))

species(name=u'S(650)',
        atoms='H:16 C:12',
        thermo=(NASA([100.00, 983.18],
                     [-2.05097756E+00,  1.11125066E-01, -3.58412237E-05,
                      -3.59772249E-08,  2.27919017E-11,  3.98958457E+04,
                       4.68593887E+01]),
                NASA([983.18, 5000.00],
                     [ 2.52169911E+01,  4.97969231E-02, -1.79633975E-05,
                       3.22270937E-09, -2.25930287E-13,  3.21362552E+04,
                      -9.64240230E+01])))

species(name=u'S(660)',
        atoms='H:16 C:12',
        thermo=(NASA([100.00, 965.51],
                     [-1.48010848E+00,  8.73195699E-02,  4.32084939E-05,
                      -1.24323023E-07,  5.52324518E-11,  1.86240551E+04,
                       3.89687652E+01]),
                NASA([965.51, 5000.00],
                     [ 2.86828957E+01,  4.34912924E-02, -1.47497714E-05,
                       2.73150662E-09, -2.02190259E-13,  9.01787604E+03,
                      -1.25075357E+02])))

species(name=u'S(661)',
        atoms='H:16 C:12',
        thermo=(NASA([100.00, 1029.62],
                     [-1.39422662E+00,  9.33874007E-02,  5.18274062E-06,
                      -6.73313605E-08,  3.01045060E-11,  2.34099191E+04,
                       3.84701054E+01]),
                NASA([1029.62, 5000.00],
                     [ 2.29264927E+01,  5.57246220E-02, -2.27288480E-05,
                       4.34065058E-09, -3.12487849E-13,  1.53898378E+04,
                      -9.41993310E+01])))

species(name=u'S(675)',
        atoms='H:16 C:12',
        thermo=(NASA([100.00, 980.77],
                     [-2.21845665E+00,  1.15202302E-01, -4.46058253E-05,
                      -2.89292454E-08,  2.08193354E-11,  3.97133228E+04,
                       4.48687920E+01]),
                NASA([980.77, 5000.00],
                     [ 2.59409200E+01,  4.89148103E-02, -1.74910345E-05,
                       3.12129948E-09, -2.18247198E-13,  3.18543069E+04,
                      -1.02343316E+02])))

species(name=u'S(686)',
        atoms='H:16 C:12',
        thermo=(NASA([100.00, 989.29],
                     [-1.49871027E+00,  8.97231513E-02,  3.13728211E-05,
                      -1.05849951E-07,  4.65472901E-11,  2.08342656E+04,
                       3.86324941E+01]),
                NASA([989.29, 5000.00],
                     [ 2.71231573E+01,  4.82447418E-02, -1.83146882E-05,
                       3.49879125E-09, -2.57494969E-13,  1.15378770E+04,
                      -1.17506583E+02])))

species(name=u'S(1243)',
        atoms='H:10 C:6',
        thermo=(NASA([100.00, 1020.63],
                     [ 9.97427413E-01,  5.59777045E-02, -2.05880600E-05,
                      -1.17182304E-08,  8.13452041E-12,  6.30749855E+03,
                       2.38941836E+01]),
                NASA([1020.63, 5000.00],
                     [ 1.33828218E+01,  2.83661253E-02, -1.07663110E-05,
                       1.95749020E-09, -1.36589418E-13,  2.68926840E+03,
                      -4.14511818E+01])))

species(name=u'S(1251)',
        atoms='H:14 C:10',
        thermo=(NASA([100.00, 986.06],
                     [-1.44909215E+00,  1.01424899E-01, -4.84844562E-05,
                      -1.57983685E-08,  1.50673204E-11,  1.99508936E+04,
                       3.67659825E+01]),
                NASA([986.06, 5000.00],
                     [ 2.42859453E+01,  3.77392366E-02, -1.35336379E-05,
                       2.44095589E-09, -1.72311717E-13,  1.28965094E+04,
                      -9.70649724E+01])))

species(name=u'S(1353)',
        atoms='H:11 C:8',
        thermo=(NASA([100.00, 963.38],
                     [ 3.22493249E-01,  6.42731774E-02, -5.26621565E-07,
                      -4.79928404E-08,  2.39568848E-11,  2.32032772E+04,
                       2.89994585E+01]),
                NASA([963.38, 5000.00],
                     [ 1.79964989E+01,  3.07733805E-02, -1.04664727E-05,
                       1.85925265E-09, -1.31719885E-13,  1.79471317E+04,
                      -6.52137579E+01])))

species(name=u'S(1391)',
        atoms='H:16 C:12',
        thermo=(NASA([100.00, 992.69],
                     [-2.16821098E+00,  1.13500613E-01, -4.18937515E-05,
                      -3.03524070E-08,  2.07540517E-11,  4.41106970E+04,
                       4.79017194E+01]),
                NASA([992.69, 5000.00],
                     [ 2.60887848E+01,  4.86324276E-02, -1.79039207E-05,
                       3.25242392E-09, -2.29439930E-13,  3.60866742E+04,
                      -1.00373160E+02])))

species(name=u'S(2502)',
        atoms='H:15 C:12',
        thermo=(NASA([100.00, 993.54],
                     [-1.21346258E+00,  8.43526020E-02,  3.95110756E-05,
                      -1.09218661E-07,  4.65596299E-11,  3.07992502E+04,
                       3.58638913E+01]),
                NASA([993.54, 5000.00],
                     [ 2.48582341E+01,  5.15640076E-02, -1.99549339E-05,
                       3.80148454E-09, -2.77628001E-13,  2.20562691E+04,
                      -1.07675478E+02])))

species(name=u'S(2524)',
        atoms='H:15 C:12',
        thermo=(NASA([100.00, 969.17],
                     [-1.33112740E+00,  8.08061419E-02,  6.54896307E-05,
                      -1.47798167E-07,  6.31949869E-11,  2.82241901E+04,
                       3.60758231E+01]),
                NASA([969.17, 5000.00],
                     [ 2.93222374E+01,  4.36477264E-02, -1.52964970E-05,
                       2.90318484E-09, -2.18031869E-13,  1.80859861E+04,
                      -1.32499192E+02])))

species(name=u'S(2540)',
        atoms='H:15 C:12',
        thermo=(NASA([100.00, 964.77],
                     [-1.24554964E+00,  8.48525801E-02,  3.68210014E-05,
                      -1.12967708E-07,  5.05043869E-11,  3.02019519E+04,
                       3.79554416E+01]),
                NASA([964.77, 5000.00],
                     [ 2.66495838E+01,  4.36431761E-02, -1.48530850E-05,
                       2.72046080E-09, -1.98999235E-13,  2.13548196E+04,
                      -1.13577774E+02])))

species(name=u'S(2561)',
        atoms='H:15 C:12',
        thermo=(NASA([100.00, 966.53],
                     [ 2.01311222E-01,  5.16891800E-02,  1.05491261E-04,
                      -1.66978780E-07,  6.58035809E-11,  3.30851350E+04,
                       2.92750646E+01]),
                NASA([966.53, 5000.00],
                     [ 1.93278766E+01,  5.19567111E-02, -1.81846058E-05,
                       3.34667964E-09, -2.43379135E-13,  2.56780930E+04,
                      -8.15396068E+01])))

species(name=u'S(3243)',
        atoms='H:15 C:12',
        thermo=(NASA([100.00, 968.72],
                     [ 2.33528710E-01,  4.64535214E-02,  1.28472417E-04,
                      -1.94260569E-07,  7.57964816E-11,  3.29027674E+04,
                       2.97516484E+01]),
                NASA([968.72, 5000.00],
                     [ 2.15215227E+01,  4.96546523E-02, -1.75516693E-05,
                       3.31438217E-09, -2.46553083E-13,  2.45037488E+04,
                      -9.43372743E+01])))

species(name=u'S(3455)',
        atoms='H:14 C:8',
        thermo=(NASA([100.00, 1679.81],
                     [ 1.34479463E-01,  8.12807397E-02, -5.06581179E-05,
                       1.60740811E-08, -2.12003077E-12, -4.14905031E+02,
                       3.03348271E+01]),
                NASA([1679.81, 5000.00],
                     [ 1.52493559E+01,  4.52883876E-02, -1.85180252E-05,
                       3.31846314E-09, -2.21633288E-13, -5.49286133E+03,
                      -5.04253072E+01])))

species(name=u'S(3883)',
        atoms='H:18 C:12',
        thermo=(NASA([100.00, 1060.78],
                     [-2.76910324E+00,  1.29949199E-01, -8.17017370E-05,
                       1.30070488E-08,  4.38826342E-12,  1.29935031E+04,
                       4.74566764E+01]),
                NASA([1060.78, 5000.00],
                     [ 2.58559308E+01,  5.45508378E-02, -2.10991288E-05,
                       3.83884921E-09, -2.66387344E-13,  5.08966236E+03,
                      -1.00961364E+02])))

species(name=u'C2H6(3973)',
        atoms='H:6 C:2',
        thermo=(NASA([100.00, 1012.42],
                     [ 3.72239291E+00,  1.65083841E-03,  3.44175530E-05,
                      -3.76858229E-08,  1.24450657E-11, -1.15575901E+04,
                       4.68247999E+00]),
                NASA([1012.42, 5000.00],
                     [ 2.82848257E+00,  1.73040568E-02, -6.73334245E-06,
                       1.23742024E-09, -8.65676410E-14, -1.19978080E+04,
                       5.93811707E+00])))

species(name=u'S(4045)',
        atoms='H:14 C:8',
        thermo=(NASA([100.00, 1059.72],
                     [-1.16833915E-01,  7.71820918E-02, -2.83832925E-05,
                      -1.28024877E-08,  8.98711085E-12, -2.79373927E+03,
                       3.15436459E+01]),
                NASA([1059.72, 5000.00],
                     [ 1.57756719E+01,  4.31430083E-02, -1.69315095E-05,
                       3.09975172E-09, -2.15530139E-13, -7.61906801E+03,
                      -5.29248602E+01])))

species(name=u'X(1)',
        atoms='X:1',
        thermo=(NASA([100.00, 1554.80],
                     [ 7.10139498E-03, -4.25619522E-05,  8.98533016E-08,
                      -7.80193649E-11,  2.32465471E-14, -8.76101712E-01,
                      -3.11211229E-02]),
                NASA([1554.80, 5000.00],
                     [ 1.60299900E-01, -2.52235409E-04,  1.14181275E-07,
                      -1.21471653E-11,  3.85790025E-16, -7.08100885E+01,
                      -9.09527530E-01])))

species(name=u'HX(5)',
        atoms='H:1 X:1',
        thermo=(NASA([100.00, 952.91],
                     [-3.80965452E-01,  5.47228709E-03,  2.60912778E-06,
                      -9.64961980E-09,  4.63946753E-12, -7.97198027E+03,
                       1.01725550E+00]),
                NASA([952.91, 5000.00],
                     [ 2.80339655E+00, -5.41047017E-04,  4.99507978E-07,
                      -7.54963647E-11,  3.06772366E-15, -8.91272969E+03,
                      -1.59436787E+01])))

species(name=u'C2H3X(37)',
        atoms='H:3 C:2 X:1',
        thermo=(NASA([100.00, 928.62],
                     [ 3.83091018E+00, -8.76381562E-03,  6.97956896E-05,
                      -8.67969174E-08,  3.33218121E-11,  6.67726531E+03,
                      -1.81151753E+01]),
                NASA([928.62, 5000.00],
                     [ 8.78054562E+00,  1.92497720E-03,  8.25825014E-07,
                      -1.63749818E-10,  5.71728318E-15,  4.37786219E+03,
                      -4.90588618E+01])))

species(name=u'C2H5X(40)',
        atoms='H:5 C:2 X:1',
        thermo=(NASA([100.00, 803.81],
                     [-1.64625424E+00,  3.89626488E-02, -4.31128887E-05,
                       2.97076939E-08, -8.80222915E-12, -5.02692634E+03,
                       9.27323637E+00]),
                NASA([803.81, 5000.00],
                     [ 1.97598112E+00,  2.09382766E-02, -9.47916922E-06,
                       1.81392948E-09, -1.27206354E-13, -5.60927512E+03,
                      -7.41107956E+00])))

species(name=u'C4H5X(80)',
        atoms='H:5 C:4 X:1',
        thermo=(NASA([100.00, 936.52],
                     [ 2.68471723E+00,  1.36244496E-02,  5.32591849E-05,
                      -8.32912448E-08,  3.41499374E-11,  8.77049549E+03,
                      -1.06510487E+01]),
                NASA([936.52, 5000.00],
                     [ 1.29012266E+01,  8.96921861E-03, -1.71920076E-06,
                       2.89744517E-10, -2.58686364E-14,  5.14745655E+03,
                      -6.83963397E+01])))

species(name=u'C4H5X(81)',
        atoms='H:5 C:4 X:1',
        thermo=(NASA([100.00, 928.63],
                     [ 2.64232495E+00,  8.31109593E-03,  8.12146261E-05,
                      -1.21398701E-07,  4.98630759E-11,  1.39534043E+04,
                      -1.03932963E+01]),
                NASA([928.63, 5000.00],
                     [ 1.69490474E+01,  2.00818812E-03,  2.03468841E-06,
                      -4.02657023E-10,  1.85400094E-14,  8.91090988E+03,
                      -9.11990785E+01])))

species(name=u'C6H9X(159)',
        atoms='H:9 C:6 X:1',
        thermo=(NASA([100.00, 977.39],
                     [ 1.58497019E+00,  3.64531117E-02,  3.83857498E-05,
                      -7.37833857E-08,  3.01369761E-11,  1.40899091E+03,
                       1.74561957E+00]),
                NASA([977.39, 5000.00],
                     [ 1.38452347E+01,  2.70863641E-02, -9.86817345E-06,
                       1.84854634E-09, -1.35051249E-13, -2.93683910E+03,
                      -6.70942181E+01])))

species(name=u'C6H9X(192)',
        atoms='H:9 C:6 X:1',
        thermo=(NASA([100.00, 995.64],
                     [ 1.00158150E+00,  5.37831764E-02, -1.05077719E-05,
                      -2.52898569E-08,  1.36194364E-11,  1.54552710E+04,
                       4.73928304E+00]),
                NASA([995.64, 5000.00],
                     [ 1.48279675E+01,  2.56881420E-02, -9.53965888E-06,
                       1.75504791E-09, -1.24935257E-13,  1.13413460E+04,
                      -6.87379050E+01])))

species(name=u'SX(407)',
        atoms='H:15 C:12 X:1',
        thermo=(NASA([100.00, 998.97],
                     [-8.99471708E-01,  7.61906300E-02,  6.22755405E-05,
                      -1.28403241E-07,  5.19561596E-11,  1.78535900E+04,
                       1.70460900E+01]),
                NASA([998.97, 5000.00],
                     [ 2.29677772E+01,  5.66231660E-02, -2.24612172E-05,
                       4.30391511E-09, -3.14023333E-13,  9.29290663E+03,
                      -1.17055355E+02])))

species(name=u'SX(409)',
        atoms='H:15 C:12 X:1',
        thermo=(NASA([100.00, 984.86],
                     [-1.25415917E+00,  8.14723399E-02,  5.99670849E-05,
                      -1.35047832E-07,  5.65263335E-11,  1.52651498E+04,
                       1.50885788E+01]),
                NASA([984.86, 5000.00],
                     [ 2.64955777E+01,  5.12028157E-02, -1.94857584E-05,
                       3.72553762E-09, -2.74703249E-13,  5.80132004E+03,
                      -1.38661398E+02])))

species(name=u'SX(410)',
        atoms='H:15 C:12 X:1',
        thermo=(NASA([100.00, 997.04],
                     [-1.22047231E+00,  8.68484986E-02,  2.60827202E-05,
                      -9.32243731E-08,  4.06496059E-11,  2.90536660E+04,
                       1.98829986E+01]),
                NASA([997.04, 5000.00],
                     [ 2.39598117E+01,  5.16453034E-02, -1.99734851E-05,
                       3.77822022E-09, -2.73872604E-13,  2.07610954E+04,
                      -1.17928271E+02])))

species(name=u'SX(412)',
        atoms='H:15 C:12 X:1',
        thermo=(NASA([100.00, 976.31],
                     [-1.37882584E+00,  8.72729725E-02,  3.54645112E-05,
                      -1.10989729E-07,  4.90790319E-11,  2.20255043E+04,
                       1.56116669E+01]),
                NASA([976.31, 5000.00],