units(length='cm', time='s', quantity='mol', act_energy='kcal/mol')

ideal_gas(name='gas',
          elements="H D T C Ci O Oi N Ne Ar He Si S Cl X",
          species="""n-heptane   Ar          He          Ne
                     N2          C2H4(2)     C4H8-1(3)   C4H8-2(4)
                     C4H6(7)     C6H8(9)     C3H6(32)    H2(68)
                     C8H10(113)  C6H9(136)   C8H12(140)  S(168)
                     S(171)      S(181)      S(185)      S(189)
                     S(244)      S(264)      S(932)      S(937)
                     S(1012)     S(1066)     C7H8(1239)  C7H7(1247)
                     C5H8(1401)  S(1530)     S(1652)     S(1778)
                     S(1944)     S(1997)     S(2039)     S(2160)
                     C5H8(2189)  S(2439)     S(2440)     S(2517)
                     S(3089)     CH4(3214)   C2H6(3263)  S(3896)
                     S(3945)     S(4236)     S(4879)     S(5004)
                     S(5110)     S(5141)     S(5175)     S(5516)
                     S(5969)     S(6257)     S(9127)""",
          reactions='gas-*',
          initial_state=state(temperature=300.0, pressure=OneAtm))

ideal_interface(name='surface1',
                elements="H D T C Ci O Oi N Ne Ar He Si S Cl X",
                species="""X(1)        HX(5)       C2H3X(37)   allylX(38)
                          CH3X(39)    C2H5X(40)   C4H7X(41)   C4H7X(43)
                          C4H7X(44)   C3H5X(45)   C4H5X(80)   C4H5X(81)
                          C6H7X(132)  C6H7X(133)  C6H7X(134)  C6H9X(159)
                          C6H9X(192)  SX(420)     SX(421)     SX(422)
                          SX(423)     SX(424)     SX(425)     SX(426)
                          SX(427)     SX(428)     SX(429)     SX(430)
                          SX(431)     SX(432)     SX(433)     SX(434)
                          SX(554)     SX(555)     SX(556)     SX(557)
                          SX(558)     SX(559)     SX(560)     SX(561)
                          SX(562)     SX(563)     SX(564)     SX(565)
                          SX(566)     SX(567)     SX(585)     C6H7X(599)
                          C8H9X(721)  C8H9X(722)  C8H9X(723)  C8H9X(724)
                          SX(825)     SX(826)     SX(830)     SX(837)
                          SX(838)     SX(841)     SX(844)     SX(845)
                          SX(850)     SX(851)     SX(852)     SX(863)
                          SX(866)     SX(873)     SX(885)     SX(886)
                          SX(893)     SX(894)     SX(911)     SX(915)
                          SX(929)     SX(1037)    SX(1161)    SX(1166)
                          SX(1167)    SX(1191)    SX(1195)    SX(1196)
                          SX(1202)    SX(1205)    SX(1206)    SX(1226)
                          SX(1228)    SX(1231)    SX(1291)    SX(1292)
                          SX(1293)    SX(1294)    SX(1295)    SX(1296)
                          SX(1395)    SX(1397)    SX(1421)    SX(1422)
                          SX(1454)    SX(1555)    SX(1951)    SX(1952)
                          SX(1954)    SX(1962)    SX(1989)    SX(1991)
                          SX(2048)    SX(2049)    SX(2050)    SX(2051)
                          SX(2052)    SX(2053)    SX(2152)    SX(2154)
                          SX(2195)    SX(2345)    SX(2358)    SX(2482)
                          SX(2483)    SX(2549)    SX(2550)    SX(2868)
                          SX(3056)    SX(3081)    SX(3082)    SX(3085)
                          SX(3086)    SX(3093)    SX(3095)    SX(3173)
                          SX(3333)    SX(3335)    SX(3336)    SX(3337)
                          SX(3338)    SX(3339)    SX(3340)    SX(3341)
                          SX(3375)    SX(3377)    SX(3420)    SX(3421)
                          SX(3422)    SX(3423)    SX(3424)    SX(3507)
                          SX(3850)    SX(3931)    SX(3934)    SX(4101)
                          SX(4330)    SX(4349)    SX(4878)    SX(4953)
                          SX(4954)    SX(4955)    SX(4956)    SX(4957)
                          SX(4958)    SX(4959)    SX(4960)    SX(5001)
                          SX(5028)    SX(5029)    SX(5089)    SX(5185)
                          SX(5186)    SX(5187)    SX(5957)    SX(5959)
                          SX(6143)    SX(6154)    SX(6166)    SX(6201)
                          SX(6202)    SX(6569)    SX(6570)    SX(6771)
                          SX(6772)    SX(6934)    SX(6935)    SX(6971)
                          SX(7000)    SX(7083)    SX(7085)    SX(8703)
                          SX(8921)    SX(9296)    SX(9302)    SX(9304)
                          SX(9439)    SX(9471)    SX(9472)    SX(9479)
                          SX(9480)""",
                site_density=2.72e-09,
                phases="gas",
          reactions='surface1-*',
                initial_state=state(temperature=300.0, pressure=OneAtm))

#-------------------------------------------------------------------------------
# Element data
#-------------------------------------------------------------------------------

element(symbol=u'X', atomic_mass=195.083)
element(symbol=u'Ci', atomic_mass=13.003)
element(symbol=u'D', atomic_mass=2.014)
element(symbol=u'Oi', atomic_mass=18.0)
element(symbol=u'T', atomic_mass=3.016)
#-------------------------------------------------------------------------------
# Species data
#-------------------------------------------------------------------------------

species(name=u'n-heptane',
        atoms='H:16 C:7',
        thermo=(NASA([100.00, 1262.73],
                     [-2.91681405E-03,  7.69373649E-02, -3.48025563E-05,
                       1.86095180E-09,  2.01573617E-12, -2.57829342E+04,
                       3.00312148E+01]),
                NASA([1262.73, 5000.00],
                     [ 1.38377915E+01,  4.85945016E-02, -1.95474548E-05,
                       3.52837178E-09, -2.39064676E-13, -3.05141556E+04,
                      -4.48642836E+01])))

species(name=u'Ar',
        atoms='Ar:1',
        thermo=(NASA([200.00, 1000.00],
                     [ 2.50000000E+00,  0.00000000E+00,  0.00000000E+00,
                       0.00000000E+00,  0.00000000E+00, -7.45375000E+02,
                       4.37967000E+00]),
                NASA([1000.00, 6000.00],
                     [ 2.50000000E+00,  0.00000000E+00,  0.00000000E+00,
                       0.00000000E+00,  0.00000000E+00, -7.45375000E+02,
                       4.37967000E+00])))

species(name=u'He',
        atoms='He:1',
        thermo=(NASA([200.00, 1000.00],
                     [ 2.50000000E+00,  0.00000000E+00,  0.00000000E+00,
                       0.00000000E+00,  0.00000000E+00, -7.45375000E+02,
                       9.28724000E-01]),
                NASA([1000.00, 6000.00],
                     [ 2.50000000E+00,  0.00000000E+00,  0.00000000E+00,
                       0.00000000E+00,  0.00000000E+00, -7.45375000E+02,
                       9.28724000E-01])))

species(name=u'Ne',
        atoms='Ne:1',
        thermo=(NASA([200.00, 1000.00],
                     [ 2.50000000E+00,  0.00000000E+00,  0.00000000E+00,
                       0.00000000E+00,  0.00000000E+00, -7.45375000E+02,
                       3.35532000E+00]),
                NASA([1000.00, 6000.00],
                     [ 2.50000000E+00,  0.00000000E+00,  0.00000000E+00,
                       0.00000000E+00,  0.00000000E+00, -7.45375000E+02,
                       3.35532000E+00])))

species(name=u'N2',
        atoms='N:2',
        thermo=(NASA([200.00, 1000.00],
                     [ 3.53101000E+00, -1.23661000E-04, -5.02999000E-07,
                       2.43531000E-09, -1.40881000E-12, -1.04698000E+03,
                       2.96747000E+00]),
                NASA([1000.00, 6000.00],
                     [ 2.95258000E+00,  1.39690000E-03, -4.92632000E-07,
                       7.86010000E-11, -4.60755000E-15, -9.23949000E+02,
                       5.87189000E+00])))

species(name=u'C2H4(2)',
        atoms='H:4 C:2',
        thermo=(NASA([100.00, 979.36],
                     [ 3.97471606E+00, -4.75844285E-03,  4.16783770E-05,
                      -4.51392516E-08,  1.54224761E-11,  4.91540746E+03,
                       3.62430844E+00]),
                NASA([979.36, 5000.00],
                     [ 3.55660610E+00,  1.10627464E-02, -4.17019079E-06,
                       7.85586770E-10, -5.70060829E-14,  4.32046489E+03,
                       2.17719479E+00])))

species(name=u'C4H8-1(3)',
        atoms='H:8 C:4',
        thermo=(NASA([100.00, 1007.28],
                     [ 2.58772906E+00,  2.32777969E-02,  1.93412349E-05,
                      -3.55496333E-08,  1.36906009E-11, -1.91872926E+03,
                       1.45750618E+01]),
                NASA([1007.28, 5000.00],
                     [ 7.20517168E+00,  2.36361568E-02, -9.03150028E-06,
                       1.65392666E-09, -1.16019260E-13, -3.79733937E+03,
                      -1.24426257E+01])))

species(name=u'C4H8-2(4)',
        atoms='H:8 C:4',
        thermo=(NASA([100.00, 1157.79],
                     [ 2.51998327E+00,  2.76812799E-02,  9.43783469E-07,
                      -1.25009101E-08,  4.67144666E-12, -3.34374767E+03,
                       1.30195623E+01]),
                NASA([1157.79, 5000.00],
                     [ 6.04225708E+00,  2.60072350E-02, -1.04843374E-05,
                       1.90880922E-09, -1.30600505E-13, -4.86276511E+03,
                      -7.52715109E+00])))

species(name=u'C4H6(7)',
        atoms='H:6 C:4',
        thermo=(NASA([100.00, 946.05],
                     [ 2.80599310E+00,  1.02584471E-02,  6.17260255E-05,
                      -9.01642687E-08,  3.59116961E-11,  1.16584972E+04,
                       1.20621434E+01]),
                NASA([946.05, 5000.00],
                     [ 1.24693720E+01,  1.00553901E-02, -2.41206872E-06,
                       4.57077303E-10, -3.93160571E-14,  8.01077795E+03,
                      -4.36374720E+01])))

species(name=u'C6H8(9)',
        atoms='H:8 C:6',
        thermo=(NASA([100.00, 941.22],
                     [ 1.38427980E+00,  4.14411503E-02,  1.94287417E-05,
                      -6.16688700E-08,  2.86503633E-11,  1.76317461E+04,
                       1.93257509E+01]),
                NASA([941.22, 5000.00],
                     [ 1.69619680E+01,  1.57221707E-02, -4.10118367E-06,
                       6.95736344E-10, -5.26521484E-14,  1.29061672E+04,
                      -6.44097553E+01])))

species(name=u'C3H6(32)',
        atoms='H:6 C:3',
        thermo=(NASA([100.00, 983.75],
                     [ 3.31912102E+00,  8.17958674E-03,  3.34736123E-05,
                      -4.36193684E-08,  1.58213364E-11,  7.49325328E+02,
                       9.54025058E+00]),
                NASA([983.75, 5000.00],
                     [ 5.36755173E+00,  1.70743019E-02, -6.35107626E-06,
                       1.16619529E-09, -8.27620279E-14, -4.87138326E+02,
                      -4.54467529E+00])))

species(name=u'H2(68)',
        atoms='H:2',
        thermo=(NASA([100.00, 1959.08],
                     [ 3.43536412E+00,  2.12710353E-04, -2.78625043E-07,
                       3.40267167E-10, -7.76031998E-14, -1.03135984E+03,
                      -3.90841732E+00]),
                NASA([1959.08, 5000.00],
                     [ 2.78816583E+00,  5.87640942E-04,  1.59010417E-07,
                      -5.52739026E-11,  4.34310984E-15, -5.96144270E+02,
                       1.12732655E-01])))

species(name=u'C8H10(113)',
        atoms='H:10 C:8',
        thermo=(NASA([100.00, 941.38],
                     [ 8.64508879E-02,  6.59507123E-02,  1.49007776E-06,
                      -6.06862449E-08,  3.13845046E-11,  2.39088929E+04,
                       2.66192822E+01]),
                NASA([941.38, 5000.00],
                     [ 2.28417755E+01,  1.96704891E-02, -5.08803462E-06,
                       8.53682038E-10, -6.42382395E-14,  1.73909786E+04,
                      -9.36509497E+01])))

species(name=u'C6H9(136)',
        atoms='H:9 C:6',
        thermo=(NASA([100.00, 995.34],
                     [ 1.62522454E+00,  3.93401586E-02,  1.78978273E-05,
                      -4.78993847E-08,  2.01402388E-11,  1.69431093E+04,
                       2.25224222E+01]),
                NASA([995.34, 5000.00],
                     [ 1.22021413E+01,  2.74567638E-02, -1.03424270E-05,
                       1.92565312E-09, -1.38069748E-13,  1.33207104E+04,
                      -3.60755769E+01])))

species(name=u'C8H12(140)',
        atoms='H:12 C:8',
        thermo=(NASA([100.00, 1000.91],
                     [ 1.03104845E+00,  4.58966185E-02,  4.70462341E-05,
                      -8.59231040E-08,  3.37296428E-11,  6.18965652E+03,
                       2.35063947E+01]),
                NASA([1000.91, 5000.00],
                     [ 1.40619845E+01,  4.08789734E-02, -1.59582538E-05,
                       3.01517910E-09, -2.17443386E-13,  1.22388542E+03,
                      -5.11475565E+01])))

species(name=u'S(168)',
        atoms='H:14 C:10',
        thermo=(NASA([100.00, 1000.82],
                     [-6.31768052E-02,  6.63327958E-02,  3.52866104E-05,
                      -8.69374671E-08,  3.59821837E-11,  1.49219107E+04,
                       3.14585536E+01]),
                NASA([1000.82, 5000.00],
                     [ 1.83633542E+01,  4.74202731E-02, -1.83998113E-05,
                       3.46693133E-09, -2.49801392E-13,  8.49241227E+03,
                      -7.11484830E+01])))

species(name=u'S(171)',
        atoms='H:14 C:10',
        thermo=(NASA([100.00, 970.10],
                     [-9.78988949E-03,  5.86706729E-02,  7.01434593E-05,
                      -1.32675939E-07,  5.46186119E-11,  1.25292176E+04,
                       3.22617600E+01]),
                NASA([970.10, 5000.00],
                     [ 2.20659649E+01,  4.04480551E-02, -1.42487489E-05,
                       2.67818961E-09, -1.98556600E-13,  4.82039373E+03,
                      -9.12271962E+01])))

species(name=u'S(181)',
        atoms='H:16 C:12',
        thermo=(NASA([100.00, 985.43],
                     [-1.88304682E+00,  1.07042194E-01, -2.70554103E-05,
                      -4.30549514E-08,  2.47781880E-11,  4.00783494E+04,
                       4.74620913E+01]),
                NASA([985.43, 5000.00],
                     [ 2.44922294E+01,  5.06805346E-02, -1.84366585E-05,
                       3.32433721E-09, -2.33631810E-13,  3.24185269E+04,
                      -9.18863874E+01])))

species(name=u'S(185)',
        atoms='H:16 C:12',
        thermo=(NASA([100.00, 992.45],
                     [-1.36726188E+00,  9.09276671E-02,  1.69902518E-05,
                      -8.53947805E-08,  3.84301239E-11,  2.11993195E+04,
                       3.87738109E+01]),
                NASA([992.45, 5000.00],
                     [ 2.42201531E+01,  5.14040751E-02, -1.94056379E-05,
                       3.62910452E-09, -2.61722320E-13,  1.29880616E+04,
                      -1.00257920E+02])))

species(name=u'S(189)',
        atoms='H:16 C:12',
        thermo=(NASA([100.00, 961.97],
                     [-1.50816176E+00,  8.75229397E-02,  4.32196782E-05,
                      -1.26059866E-07,  5.63926918E-11,  3.17299871E+04,
                       4.22614545E+01]),
                NASA([961.97, 5000.00],
                     [ 2.93787122E+01,  4.15661279E-02, -1.37239862E-05,
                       2.52954162E-09, -1.88135179E-13,  2.19715065E+04,
                      -1.25386845E+02])))

species(name=u'S(244)',
        atoms='H:16 C:12',
        thermo=(NASA([100.00, 1082.71],
                     [-1.42165646E+00,  1.00366054E-01, -2.86690015E-05,
                      -2.45430021E-08,  1.37134617E-11,  2.67269131E+04,
                       3.45501008E+01]),
                NASA([1082.71, 5000.00],
                     [ 1.94956582E+01,  6.02181764E-02, -2.44875026E-05,
                       4.55572743E-09, -3.18938634E-13,  2.00211421E+04,
                      -7.80762928E+01])))

species(name=u'S(264)',
        atoms='H:16 C:12',
        thermo=(NASA([100.00, 967.86],
                     [-1.32209228E+00,  8.47378361E-02,  4.59787499E-05,
                      -1.23781967E-07,  5.42497769E-11,  2.23199283E+04,
                       3.57020946E+01]),
                NASA([967.86, 5000.00],
                     [ 2.71811605E+01,  4.57697461E-02, -1.58000646E-05,
                       2.92345730E-09, -2.14846023E-13,  1.31102045E+04,
                      -1.19952912E+02])))

species(name=u'S(932)',
        atoms='H:16 C:12',
        thermo=(NASA([100.00, 911.83],
                     [-1.33567750E+00,  4.62975801E-02,  2.34436127E-04,
                      -3.86184949E-07,  1.66340045E-10,  2.18115000E+04,
                       4.06045305E+01]),
                NASA([911.83, 5000.00],
                     [ 5.29589683E+01, -6.38869939E-03,  1.59664626E-05,
                      -3.35908785E-09,  2.12545105E-13,  4.19870290E+03,
                      -2.58608841E+02])))

species(name=u'S(937)',
        atoms='H:16 C:12',
        thermo=(NASA([100.00, 911.83],
                     [-1.33567750E+00,  4.62975801E-02,  2.34436127E-04,
                      -3.86184949E-07,  1.66340045E-10,  2.18115000E+04,
                       4.06045305E+01]),
                NASA([911.83, 5000.00],
                     [ 5.29589683E+01, -6.38869939E-03,  1.59664626E-05,
                      -3.35908785E-09,  2.12545105E-13,  4.19870290E+03,
                      -2.58608841E+02])))

species(name=u'S(1012)',
        atoms='H:16 C:12',
        thermo=(NASA([100.00, 1116.84],
                     [-2.83914121E+00,  1.32719140E-01, -1.00112287E-04,
                       3.34525043E-08, -2.86099054E-12,  1.91762850E+04,
                       2.64659394E+01]),
                NASA([1116.84, 5000.00],
                     [ 2.66403282E+01,  4.98849225E-02, -1.94111630E-05,
                       3.51696406E-09, -2.42247815E-13,  1.11728250E+04,
                      -1.25364380E+02])))

species(name=u'S(1066)',
        atoms='H:15 C:12',
        thermo=(NASA([100.00, 907.48],
                     [-1.32657851E+00,  4.58797393E-02,  2.34059500E-04,
                      -3.89191605E-07,  1.68923945E-10,  3.02376241E+04,
                       3.95097770E+01]),
                NASA([907.48, 5000.00],
                     [ 5.39254412E+01, -1.07230889E-02,  1.86269484E-05,
                      -3.93134767E-09,  2.54929906E-13,  1.25122213E+04,
                      -2.64095851E+02])))

species(name=u'C7H8(1239)',
        atoms='H:8 C:7',
        thermo=(NASA([100.00, 966.81],
                     [ 1.90138903E+00,  2.67868079E-02,  6.30523366E-05,
                      -9.95224287E-08,  3.94205761E-11,  1.54781489E+04,
                       1.80530900E+01]),
                NASA([966.81, 5000.00],
                     [ 1.41488720E+01,  2.45164605E-02, -8.51969957E-06,
                       1.61189695E-09, -1.20790154E-13,  1.08478608E+04,
                      -5.23192761E+01])))

species(name=u'C7H7(1247)',
        atoms='H:7 C:7',
        thermo=(NASA([100.00, 977.88],
                     [ 1.92000286E+00,  2.82083578E-02,  5.05306762E-05,
                      -8.41096858E-08,  3.34189485E-11,  2.32897503E+04,
                       1.62403135E+01]),
                NASA([977.88, 5000.00],
                     [ 1.37265001E+01,  2.33539089E-02, -8.65715876E-06,
                       1.66950309E-09, -1.24953783E-13,  1.89037363E+04,
                      -5.10748041E+01])))

species(name=u'C5H8(1401)',
        atoms='H:8 C:5',
        thermo=(NASA([100.00, 1049.25],
                     [ 2.01062155E+00,  3.15407187E-02,  2.07789480E-05,
                      -4.44088985E-08,  1.72419112E-11,  7.01383967E+03,
                       1.65768346E+01]),
                NASA([1049.25, 5000.00],
                     [ 1.14809937E+01,  2.45641673E-02, -1.08867259E-05,
                       2.16707025E-09, -1.59145781E-13,  3.42314914E+03,
                      -3.72078866E+01])))

species(name=u'S(1530)',
        atoms='H:16 C:12',
        thermo=(NASA([100.00, 1004.10],
                     [-2.44553935E+00,  1.19460113E-01, -5.42113342E-05,
                      -1.98307234E-08,  1.72938269E-11,  1.92327184E+04,
                       2.74324710E+01]),
                NASA([1004.10, 5000.00],
                     [ 2.76168334E+01,  4.73830923E-02, -1.77675099E-05,
                       3.26559277E-09, -2.31661894E-13,  1.07919335E+04,
                      -1.29693334E+02])))

species(name=u'S(1652)',
        atoms='H:16 C:12',
        thermo=(NASA([100.00, 1021.52],
                     [-2.55916555E+00,  1.23979943E-01, -6.98889289E-05,
                      -1.71652057E-09,  1.04672407E-11,  2.00472815E+04,
                       2.60045113E+01]),
                NASA([1021.52, 5000.00],
                     [ 2.69714964E+01,  4.86652111E-02, -1.85023371E-05,
                       3.38660979E-09, -2.38029200E-13,  1.19103907E+04,
                      -1.27389367E+02])))

species(name=u'S(1778)',
        atoms='H:16 C:12',
        thermo=(NASA([100.00, 973.24],
                     [-2.63483510E+00,  1.20227177E-01, -4.37619151E-05,
                      -4.01169398E-08,  2.69301425E-11,  1.73414808E+04,
                       2.60308394E+01]),
                NASA([973.24, 5000.00],
                     [ 3.09677045E+01,  4.16451784E-02, -1.43895481E-05,
                       2.60642050E-09, -1.87344303E-13,  7.98180084E+03,
                      -1.49653222E+02])))

species(name=u'S(1944)',
        atoms='H:17 C:12',
        thermo=(NASA([100.00, 913.08],
                     [-9.85800685E-01,  3.74773007E-02,  2.60390371E-04,
                      -4.08482747E-07,  1.72910420E-10,  1.91264895E+04,
                       4.15044459E+01]),
                NASA([913.08, 5000.00],
                     [ 5.04458111E+01, -1.54646691E-05,  1.34374605E-05,
                      -2.89647541E-09,  1.80411443E-13,  1.90494483E+03,
                      -2.44819689E+02])))

species(name=u'S(1997)',
        atoms='H:12 C:8',
        thermo=(NASA([100.00, 966.56],
                     [-1.28183216E-01,  7.35572918E-02, -1.44333618E-05,
                      -3.89698452E-08,  2.17299794E-11,  1.04422483E+04,
                       2.89601759E+01]),
                NASA([966.56, 5000.00],
                     [ 2.02785414E+01,  2.99584765E-02, -1.01704686E-05,
                       1.81720743E-09, -1.29537878E-13,  4.58909334E+03,
                      -7.86679341E+01])))

species(name=u'S(2039)',
        atoms='H:10 C:7',
        thermo=(NASA([100.00, 960.58],
                     [ 5.40181259E-01,  6.14551349E-02, -1.12030877E-05,
                      -3.44223146E-08,  1.91302393E-11,  1.31395193E+04,
                       2.36489181E+01]),
                NASA([960.58, 5000.00],
                     [ 1.78943603E+01,  2.43013009E-02, -8.01425042E-06,
                       1.41741320E-09, -1.01048701E-13,  8.18561381E+03,
                      -6.78088657E+01])))

species(name=u'S(2160)',
        atoms='H:10 C:6',
        thermo=(NASA([100.00, 1020.63],
                     [ 9.97427413E-01,  5.59777045E-02, -2.05880600E-05,
                      -1.17182304E-08,  8.13452041E-12,  6.30749855E+03,
                       2.38941836E+01]),
                NASA([1020.63, 5000.00],
                     [ 1.33828218E+01,  2.83661253E-02, -1.07663110E-05,
                       1.95749020E-09, -1.36589418E-13,  2.68926840E+03,
                      -4.14511818E+01])))

species(name=u'C5H8(2189)',
        atoms='H:8 C:5',
        thermo=(NASA([100.00, 1004.86],
                     [ 1.98273955E+00,  3.49998332E-02,  6.98515281E-06,
                      -3.05031334E-08,  1.32246652E-11,  6.96521034E+03,
                       1.60818191E+01]),
                NASA([1004.86, 5000.00],
                     [ 1.01246420E+01,  2.42323877E-02, -9.24886971E-06,
                       1.70115950E-09, -1.20059732E-13,  4.23624320E+03,
                      -2.86745770E+01])))

species(name=u'S(2439)',
        atoms='H:15 C:12',
        thermo=(NASA([100.00, 1030.69],
                     [-2.14830178E+00,  1.37586852E-01, -1.38181003E-04,
                       7.77197405E-08, -1.80404172E-11,  3.10404062E+04,
                       9.30789158E+00]),
                NASA([1030.69, 5000.00],
                     [ 1.78460919E+01,  5.99902448E-02, -2.52512212E-05,
                       4.67453237E-09, -3.22762217E-13,  2.69188262E+04,
                      -8.77577825E+01])))

species(name=u'S(2440)',
        atoms='H:15 C:12',
        thermo=(NASA([100.00, 983.36],
                     [-2.32524808E+00,  1.16459791E-01, -4.92423001E-05,
                      -2.69563107E-08,  2.07451063E-11,  2.12848906E+04,
                       8.96510965E+00]),
                NASA([983.36, 5000.00],
                     [ 2.81190401E+01,  4.34986676E-02, -1.55547935E-05,
                       2.81799598E-09, -2.00116108E-13,  1.28374618E+04,
                      -1.49907677E+02])))

species(name=u'S(2517)',
        atoms='H:14 C:10',
        thermo=(NASA([100.00, 961.89],
                     [-1.42693031E+00,  9.80798513E-02, -3.24289130E-05,
                      -3.78943330E-08,  2.44147904E-11,  1.67194334E+04,
                       3.62568687E+01]),
                NASA([961.89, 5000.00],
                     [ 2.61537984E+01,  3.39139966E-02, -1.11612519E-05,
                       1.97604397E-09, -1.41195490E-13,  9.07598537E+03,
                      -1.07883190E+02])))

species(name=u'S(3089)',
        atoms='H:16 C:12',
        thermo=(NASA([100.00, 965.51],
                     [-1.48010848E+00,  8.73195699E-02,  4.32084939E-05,
                      -1.24323023E-07,  5.52324518E-11,  1.86240551E+04,
                       3.89687652E+01]),
                NASA([965.51, 5000.00],
                     [ 2.86828957E+01,  4.34912924E-02, -1.47497714E-05,
                       2.73150662E-09, -2.02190259E-13,  9.01787604E+03,
                      -1.25075357E+02])))

species(name=u'CH4(3214)',
        atoms='H:4 C:1',
        thermo=(NASA([100.00, 1084.12],
                     [ 4.20541524E+00, -5.35557362E-03,  2.51123265E-05,
                      -2.13762843E-08,  5.97523937E-12, -1.01619433E+04,
                      -9.21279283E-01]),
                NASA([1084.12, 5000.00],
                     [ 9.08265721E-01,  1.14540858E-02, -4.57173828E-06,
                       8.29191671E-10, -5.66314895E-14, -9.71997444E+03,
                       1.39930944E+01])))

species(name=u'C2H6(3263)',
        atoms='H:6 C:2',
        thermo=(NASA([100.00, 1012.42],
                     [ 3.72239291E+00,  1.65083841E-03,  3.44175530E-05,
                      -3.76858229E-08,  1.24450657E-11, -1.15575901E+04,
                       4.68247999E+00]),
                NASA([1012.42, 5000.00],
                     [ 2.82848257E+00,  1.73040568E-02, -6.73334245E-06,
                       1.23742024E-09, -8.65676410E-14, -1.19978080E+04,
                       5.93811707E+00])))

species(name=u'S(3896)',
        atoms='H:12 C:8',
        thermo=(NASA([100.00, 966.56],
                     [-1.28183216E-01,  7.35572918E-02, -1.44333618E-05,
                      -3.89698452E-08,  2.17299794E-11,  1.04422483E+04,
                       2.89601759E+01]),
                NASA([966.56, 5000.00],
                     [ 2.02785414E+01,  2.99584765E-02, -1.01704686E-05,
                       1.81720743E-09, -1.29537878E-13,  4.58909334E+03,
                      -7.86679341E+01])))

species(name=u'S(3945)',
        atoms='H:16 C:12',
        thermo=(NASA([100.00, 968.22],
                     [-1.81161599E+00,  9.41688963E-02,  3.02167633E-05,
                      -1.14958603E-07,  5.26586822E-11,  1.53810164E+04,
                       3.63741375E+01]),
                NASA([968.22, 5000.00],
                     [ 3.08028680E+01,  4.10885084E-02, -1.40593840E-05,
                       2.63625334E-09, -1.96972705E-13,  5.23783657E+03,
                      -1.39684669E+02])))

species(name=u'S(4236)',
        atoms='H:12 C:7',
        thermo=(NASA([100.00, 1002.43],
                     [ 5.99026497E-01,  6.08356728E-02, -5.37073264E-06,
                      -3.39970972E-08,  1.67132278E-11,  1.51423754E+03,
                       2.71654250E+01]),
                NASA([1002.43, 5000.00],
                     [ 1.50955492E+01,  3.44559544E-02, -1.29812324E-05,
                       2.37752287E-09, -1.67696341E-13, -2.97306291E+03,
                      -5.06926804E+01])))

species(name=u'S(4879)',
        atoms='H:14 C:10',
        thermo=(NASA([100.00, 971.20],
                     [-2.04845480E-02,  6.01795959E-02,  6.41085138E-05,
                      -1.25045744E-07,  5.16519091E-11,  1.60426214E+04,
                       2.83952673E+01]),
                NASA([971.20, 5000.00],
                     [ 2.12998282E+01,  4.18249981E-02, -1.48156747E-05,
                       2.76616216E-09, -2.03318196E-13,  8.62572638E+03,
                      -9.07037185E+01])))

species(name=u'S(5004)',
        atoms='H:12 C:8',
        thermo=(NASA([100.00, 968.01],
                     [ 1.06961371E+00,  3.97910095E-02,  7.57087750E-05,
                      -1.23838978E-07,  4.93252757E-11,  7.31054524E+03,
                       1.97648159E+01]),
                NASA([968.01, 5000.00],
                     [ 1.70251751E+01,  3.52389628E-02, -1.23486021E-05,
                       2.30843138E-09, -1.70467328E-13,  1.34574493E+03,
                      -7.15467806E+01])))

species(name=u'S(5110)',
        atoms='H:12 C:8',
        thermo=(NASA([100.00, 986.73],
                     [ 1.33345543E-01,  6.67806055E-02,  2.67515569E-06,
                      -5.18047250E-08,  2.46528879E-11,  5.09842713E+03,