units(length='cm', time='s', quantity='mol', act_energy='kcal/mol')

ideal_gas(name='gas',
          elements="H D T C Ci O Oi N Ne Ar He Si S Cl X",
          species="""n-heptane   Ar          He          Ne
                     N2          C2H4(2)     C4H8-1(3)   C4H8-2(4)
                     C4H6(7)     C6H8(9)     H2(68)      S(181)
                     S(185)      C6H8(196)   C8H10(199)  S(261)
                     S(284)      S(294)      S(295)      S(309)
                     S(320)      S(647)      C8H11(870)  C8H11(871)
                     S(943)      S(947)      S(961)      S(962)
                     S(963)      S(965)      S(968)      S(995)
                     S(1191)     S(1595)     S(1745)     S(1823)
                     S(1840)     S(1917)     S(2795)     S(2868)
                     S(3045)     S(3196)     S(3275)     S(3513)
                     S(3514)     S(3720)     S(4090)     S(4265)
                     S(4559)     S(4618)     S(4656)     S(5010)
                     S(5107)     S(5194)     S(5195)     S(5361)""",
          reactions='gas-*',
          initial_state=state(temperature=300.0, pressure=OneAtm))

ideal_interface(name='surface1',
                elements="H D T C Ci O Oi N Ne Ar He Si S Cl X",
                species="""X(1)       HX(5)      C2H3X(37)  C4H5X(80)
                          C4H5X(81)  SX(439)    SX(441)    SX(442)
                          SX(444)    SX(445)    SX(447)    SX(448)
                          SX(932)    SX(934)    SX(1665)   SX(1668)
                          SX(1671)   SX(1740)   SX(1744)   SX(1809)
                          SX(1814)   SX(1815)   SX(1966)   SX(1967)
                          SX(1980)   SX(1981)   SX(2000)   SX(2001)
                          SX(2056)   SX(2062)   SX(2069)   SX(2070)
                          SX(2214)   SX(2216)   SX(2344)   SX(2373)
                          SX(2374)   SX(2521)   SX(2886)   SX(2888)
                          SX(2892)   SX(2906)   SX(2990)   SX(2992)
                          SX(3022)   SX(3023)   SX(3038)   SX(3189)
                          SX(3455)   SX(3556)   SX(4258)   SX(4542)
                          SX(4547)   SX(4557)   SX(4558)   SX(4575)
                          SX(4648)   SX(4746)   SX(5000)   SX(5025)
                          SX(5026)   SX(5044)   SX(5053)""",
                site_density=2.72e-09,
                phases="gas",
          reactions='surface1-*',
                initial_state=state(temperature=300.0, pressure=OneAtm))

#-------------------------------------------------------------------------------
# Element data
#-------------------------------------------------------------------------------

element(symbol=u'X', atomic_mass=195.083)
element(symbol=u'Ci', atomic_mass=13.003)
element(symbol=u'D', atomic_mass=2.014)
element(symbol=u'Oi', atomic_mass=18.0)
element(symbol=u'T', atomic_mass=3.016)
#-------------------------------------------------------------------------------
# Species data
#-------------------------------------------------------------------------------

species(name=u'n-heptane',
        atoms='H:16 C:7',
        thermo=(NASA([100.00, 1262.73],
                     [-2.91681405E-03,  7.69373649E-02, -3.48025563E-05,
                       1.86095180E-09,  2.01573617E-12, -2.57829342E+04,
                       3.00312148E+01]),
                NASA([1262.73, 5000.00],
                     [ 1.38377915E+01,  4.85945016E-02, -1.95474548E-05,
                       3.52837178E-09, -2.39064676E-13, -3.05141556E+04,
                      -4.48642836E+01])))

species(name=u'Ar',
        atoms='Ar:1',
        thermo=(NASA([200.00, 1000.00],
                     [ 2.50000000E+00,  0.00000000E+00,  0.00000000E+00,
                       0.00000000E+00,  0.00000000E+00, -7.45375000E+02,
                       4.37967000E+00]),
                NASA([1000.00, 6000.00],
                     [ 2.50000000E+00,  0.00000000E+00,  0.00000000E+00,
                       0.00000000E+00,  0.00000000E+00, -7.45375000E+02,
                       4.37967000E+00])))

species(name=u'He',
        atoms='He:1',
        thermo=(NASA([200.00, 1000.00],
                     [ 2.50000000E+00,  0.00000000E+00,  0.00000000E+00,
                       0.00000000E+00,  0.00000000E+00, -7.45375000E+02,
                       9.28724000E-01]),
                NASA([1000.00, 6000.00],
                     [ 2.50000000E+00,  0.00000000E+00,  0.00000000E+00,
                       0.00000000E+00,  0.00000000E+00, -7.45375000E+02,
                       9.28724000E-01])))

species(name=u'Ne',
        atoms='Ne:1',
        thermo=(NASA([200.00, 1000.00],
                     [ 2.50000000E+00,  0.00000000E+00,  0.00000000E+00,
                       0.00000000E+00,  0.00000000E+00, -7.45375000E+02,
                       3.35532000E+00]),
                NASA([1000.00, 6000.00],
                     [ 2.50000000E+00,  0.00000000E+00,  0.00000000E+00,
                       0.00000000E+00,  0.00000000E+00, -7.45375000E+02,
                       3.35532000E+00])))

species(name=u'N2',
        atoms='N:2',
        thermo=(NASA([200.00, 1000.00],
                     [ 3.53101000E+00, -1.23661000E-04, -5.02999000E-07,
                       2.43531000E-09, -1.40881000E-12, -1.04698000E+03,
                       2.96747000E+00]),
                NASA([1000.00, 6000.00],
                     [ 2.95258000E+00,  1.39690000E-03, -4.92632000E-07,
                       7.86010000E-11, -4.60755000E-15, -9.23949000E+02,
                       5.87189000E+00])))

species(name=u'C2H4(2)',
        atoms='H:4 C:2',
        thermo=(NASA([100.00, 979.36],
                     [ 3.97471606E+00, -4.75844285E-03,  4.16783770E-05,
                      -4.51392516E-08,  1.54224761E-11,  4.91540746E+03,
                       3.62430844E+00]),
                NASA([979.36, 5000.00],
                     [ 3.55660610E+00,  1.10627464E-02, -4.17019079E-06,
                       7.85586770E-10, -5.70060829E-14,  4.32046489E+03,
                       2.17719479E+00])))

species(name=u'C4H8-1(3)',
        atoms='H:8 C:4',
        thermo=(NASA([100.00, 1007.28],
                     [ 2.58772906E+00,  2.32777969E-02,  1.93412349E-05,
                      -3.55496333E-08,  1.36906009E-11, -1.91872926E+03,
                       1.45750618E+01]),
                NASA([1007.28, 5000.00],
                     [ 7.20517168E+00,  2.36361568E-02, -9.03150028E-06,
                       1.65392666E-09, -1.16019260E-13, -3.79733937E+03,
                      -1.24426257E+01])))

species(name=u'C4H8-2(4)',
        atoms='H:8 C:4',
        thermo=(NASA([100.00, 1157.79],
                     [ 2.51998327E+00,  2.76812799E-02,  9.43783469E-07,
                      -1.25009101E-08,  4.67144666E-12, -3.34374767E+03,
                       1.30195623E+01]),
                NASA([1157.79, 5000.00],
                     [ 6.04225708E+00,  2.60072350E-02, -1.04843374E-05,
                       1.90880922E-09, -1.30600505E-13, -4.86276511E+03,
                      -7.52715109E+00])))

species(name=u'C4H6(7)',
        atoms='H:6 C:4',
        thermo=(NASA([100.00, 946.05],
                     [ 2.80599310E+00,  1.02584471E-02,  6.17260255E-05,
                      -9.01642687E-08,  3.59116961E-11,  1.16584972E+04,
                       1.20621434E+01]),
                NASA([946.05, 5000.00],
                     [ 1.24693720E+01,  1.00553901E-02, -2.41206872E-06,
                       4.57077303E-10, -3.93160571E-14,  8.01077795E+03,
                      -4.36374720E+01])))

species(name=u'C6H8(9)',
        atoms='H:8 C:6',
        thermo=(NASA([100.00, 941.22],
                     [ 1.38427980E+00,  4.14411503E-02,  1.94287417E-05,
                      -6.16688700E-08,  2.86503633E-11,  1.76317461E+04,
                       1.93257509E+01]),
                NASA([941.22, 5000.00],
                     [ 1.69619680E+01,  1.57221707E-02, -4.10118367E-06,
                       6.95736344E-10, -5.26521484E-14,  1.29061672E+04,
                      -6.44097553E+01])))

species(name=u'H2(68)',
        atoms='H:2',
        thermo=(NASA([100.00, 1959.08],
                     [ 3.43536412E+00,  2.12710353E-04, -2.78625043E-07,
                       3.40267167E-10, -7.76031998E-14, -1.03135984E+03,
                      -3.90841732E+00]),
                NASA([1959.08, 5000.00],
                     [ 2.78816583E+00,  5.87640942E-04,  1.59010417E-07,
                      -5.52739026E-11,  4.34310984E-15, -5.96144270E+02,
                       1.12732655E-01])))

species(name=u'S(181)',
        atoms='H:16 C:12',
        thermo=(NASA([100.00, 985.43],
                     [-1.88304682E+00,  1.07042194E-01, -2.70554103E-05,
                      -4.30549514E-08,  2.47781880E-11,  4.00783494E+04,
                       4.74620913E+01]),
                NASA([985.43, 5000.00],
                     [ 2.44922294E+01,  5.06805346E-02, -1.84366585E-05,
                       3.32433721E-09, -2.33631810E-13,  3.24185269E+04,
                      -9.18863874E+01])))

species(name=u'S(185)',
        atoms='H:16 C:12',
        thermo=(NASA([100.00, 992.45],
                     [-1.36726188E+00,  9.09276671E-02,  1.69902518E-05,
                      -8.53947805E-08,  3.84301239E-11,  2.11993195E+04,
                       3.87738109E+01]),
                NASA([992.45, 5000.00],
                     [ 2.42201531E+01,  5.14040751E-02, -1.94056379E-05,
                       3.62910452E-09, -2.61722320E-13,  1.29880616E+04,
                      -1.00257920E+02])))

species(name=u'C6H8(196)',
        atoms='H:8 C:6',
        thermo=(NASA([100.00, 972.94],
                     [ 1.82686070E+00,  3.47046353E-02,  2.41070171E-05,
                      -5.44847920E-08,  2.29388832E-11,  1.99100661E+04,
                       1.81393315E+01]),
                NASA([972.94, 5000.00],
                     [ 1.21686202E+01,  2.40472785E-02, -8.58151834E-06,
                       1.57034031E-09, -1.12795334E-13,  1.63897115E+04,
                      -3.92195169E+01])))

species(name=u'C8H10(199)',
        atoms='H:10 C:8',
        thermo=(NASA([100.00, 966.00],
                     [ 5.26364552E-01,  5.92493286E-02,  6.02658334E-06,
                      -5.32875938E-08,  2.55662369E-11,  2.61873255E+04,
                       2.61353490E+01]),
                NASA([966.00, 5000.00],
                     [ 1.80461436E+01,  2.79985777E-02, -9.56971683E-06,
                       1.72854036E-09, -1.24398543E-13,  2.08757672E+04,
                      -6.77541641E+01])))

species(name=u'S(261)',
        atoms='H:14 C:10',
        thermo=(NASA([100.00, 1003.26],
                     [-1.03984048E+00,  9.30824641E-02, -3.27200043E-05,
                      -2.43703234E-08,  1.61253460E-11,  3.76511179E+04,
                       3.93183848E+01]),
                NASA([1003.26, 5000.00],
                     [ 2.09856416E+01,  4.37157160E-02, -1.63963376E-05,
                       2.98188082E-09, -2.09257609E-13,  3.12966573E+04,
                      -7.66570910E+01])))

species(name=u'S(284)',
        atoms='H:16 C:12',
        thermo=(NASA([100.00, 983.18],
                     [-2.05097756E+00,  1.11125066E-01, -3.58412237E-05,
                      -3.59772249E-08,  2.27919017E-11,  3.98958457E+04,
                       4.68593887E+01]),
                NASA([983.18, 5000.00],
                     [ 2.52169911E+01,  4.97969231E-02, -1.79633975E-05,
                       3.22270937E-09, -2.25930287E-13,  3.21362552E+04,
                      -9.64240230E+01])))

species(name=u'S(294)',
        atoms='H:16 C:12',
        thermo=(NASA([100.00, 965.51],
                     [-1.48010848E+00,  8.73195699E-02,  4.32084939E-05,
                      -1.24323023E-07,  5.52324518E-11,  1.86240551E+04,
                       3.89687652E+01]),
                NASA([965.51, 5000.00],
                     [ 2.86828957E+01,  4.34912924E-02, -1.47497714E-05,
                       2.73150662E-09, -2.02190259E-13,  9.01787604E+03,
                      -1.25075357E+02])))

species(name=u'S(295)',
        atoms='H:16 C:12',
        thermo=(NASA([100.00, 1029.62],
                     [-1.39422662E+00,  9.33874007E-02,  5.18274062E-06,
                      -6.73313605E-08,  3.01045060E-11,  2.34099191E+04,
                       3.84701054E+01]),
                NASA([1029.62, 5000.00],
                     [ 2.29264927E+01,  5.57246220E-02, -2.27288480E-05,
                       4.34065058E-09, -3.12487849E-13,  1.53898378E+04,
                      -9.41993310E+01])))

species(name=u'S(309)',
        atoms='H:16 C:12',
        thermo=(NASA([100.00, 980.77],
                     [-2.21845665E+00,  1.15202302E-01, -4.46058253E-05,
                      -2.89292454E-08,  2.08193354E-11,  3.97133228E+04,
                       4.48687920E+01]),
                NASA([980.77, 5000.00],
                     [ 2.59409200E+01,  4.89148103E-02, -1.74910345E-05,
                       3.12129948E-09, -2.18247198E-13,  3.18543069E+04,
                      -1.02343316E+02])))

species(name=u'S(320)',
        atoms='H:16 C:12',
        thermo=(NASA([100.00, 989.29],
                     [-1.49871027E+00,  8.97231513E-02,  3.13728211E-05,
                      -1.05849951E-07,  4.65472901E-11,  2.08342656E+04,
                       3.86324941E+01]),
                NASA([989.29, 5000.00],
                     [ 2.71231573E+01,  4.82447418E-02, -1.83146882E-05,
                       3.49879125E-09, -2.57494969E-13,  1.15378770E+04,
                      -1.17506583E+02])))

species(name=u'S(647)',
        atoms='H:16 C:12',
        thermo=(NASA([100.00, 967.86],
                     [-1.32209228E+00,  8.47378361E-02,  4.59787499E-05,
                      -1.23781967E-07,  5.42497769E-11,  2.23199283E+04,
                       3.57020946E+01]),
                NASA([967.86, 5000.00],
                     [ 2.71811605E+01,  4.57697461E-02, -1.58000646E-05,
                       2.92345730E-09, -2.14846023E-13,  1.31102045E+04,
                      -1.19952912E+02])))

species(name=u'C8H11(870)',
        atoms='H:11 C:8',
        thermo=(NASA([100.00, 959.84],
                     [ 1.55549600E-01,  6.83420271E-02, -9.25100203E-06,
                      -4.10151280E-08,  2.20233793E-11,  2.30207324E+04,
                       2.83933616E+01]),
                NASA([959.84, 5000.00],
                     [ 1.87271414E+01,  2.98804919E-02, -9.98815788E-06,
                       1.75648186E-09, -1.23926719E-13,  1.76621576E+04,
                      -6.97849415E+01])))

species(name=u'C8H11(871)',
        atoms='H:11 C:8',
        thermo=(NASA([100.00, 959.84],
                     [ 1.55549600E-01,  6.83420271E-02, -9.25100203E-06,
                      -4.10151280E-08,  2.20233793E-11,  2.30207324E+04,
                       2.83933616E+01]),
                NASA([959.84, 5000.00],
                     [ 1.87271414E+01,  2.98804919E-02, -9.98815788E-06,
                       1.75648186E-09, -1.23926719E-13,  1.76621576E+04,
                      -6.97849415E+01])))

species(name=u'S(943)',
        atoms='H:16 C:12',
        thermo=(NASA([100.00, 990.58],
                     [-2.33660705E+00,  1.17589627E-01, -5.07043398E-05,
                      -2.32373623E-08,  1.87493632E-11,  4.39282128E+04,
                       4.73006447E+01]),
                NASA([990.58, 5000.00],
                     [ 2.68127310E+01,  4.77499782E-02, -1.74312383E-05,
                       3.15091712E-09, -2.21747475E-13,  3.58048177E+04,
                      -1.04906066E+02])))

species(name=u'S(947)',
        atoms='H:16 C:12',
        thermo=(NASA([100.00, 990.58],
                     [-2.33660705E+00,  1.17589627E-01, -5.07043398E-05,
                      -2.32373623E-08,  1.87493632E-11,  4.39282128E+04,
                       4.73006447E+01]),
                NASA([990.58, 5000.00],
                     [ 2.68127310E+01,  4.77499782E-02, -1.74312383E-05,
                       3.15091712E-09, -2.21747475E-13,  3.58048177E+04,
                      -1.04906066E+02])))

species(name=u'S(961)',
        atoms='H:16 C:12',
        thermo=(NASA([100.00, 990.94],
                     [-1.53673879E+00,  9.50296733E-02,  8.13325447E-06,
                      -7.82185025E-08,  3.63989841E-11,  2.10168816E+04,
                       3.81765950E+01]),
                NASA([990.94, 5000.00],
                     [ 2.49483558E+01,  5.05143791E-02, -1.89287732E-05,
                       3.52660923E-09, -2.53947844E-13,  1.27044184E+04,
                      -1.04814787E+02])))

species(name=u'S(962)',
        atoms='H:16 C:12',
        thermo=(NASA([100.00, 990.94],
                     [-1.53673879E+00,  9.50296733E-02,  8.13325447E-06,
                      -7.82185025E-08,  3.63989841E-11,  2.10168816E+04,
                       3.81765950E+01]),
                NASA([990.94, 5000.00],
                     [ 2.49483558E+01,  5.05143791E-02, -1.89287732E-05,
                       3.52660923E-09, -2.53947844E-13,  1.27044184E+04,
                      -1.04814787E+02])))

species(name=u'S(963)',
        atoms='H:16 C:12',
        thermo=(NASA([100.00, 965.51],
                     [-1.48010848E+00,  8.73195699E-02,  4.32084939E-05,
                      -1.24323023E-07,  5.52324518E-11,  1.86240551E+04,
                       3.89687652E+01]),
                NASA([965.51, 5000.00],
                     [ 2.86828957E+01,  4.34912924E-02, -1.47497714E-05,
                       2.73150662E-09, -2.02190259E-13,  9.01787604E+03,
                      -1.25075357E+02])))

species(name=u'S(965)',
        atoms='H:16 C:12',
        thermo=(NASA([100.00, 990.56],
                     [-1.32892162E+00,  8.56175091E-02,  4.02422312E-05,
                      -1.13041663E-07,  4.85846312E-11,  2.10166900E+04,
                       3.92285904E+01]),
                NASA([990.56, 5000.00],
                     [ 2.63931502E+01,  4.91374623E-02, -1.87932792E-05,
                       3.60169126E-09, -2.65302821E-13,  1.18222932E+04,
                      -1.12939530E+02])))

species(name=u'S(968)',
        atoms='H:16 C:12',
        thermo=(NASA([100.00, 984.18],
                     [-8.68718801E-01,  7.64739455E-02,  5.68502265E-05,
                      -1.24594589E-07,  5.17445815E-11,  2.10848487E+04,
                       3.83828428E+01]),
                NASA([984.18, 5000.00],
                     [ 2.32342640E+01,  5.25863825E-02, -1.96396862E-05,
                       3.69301318E-09, -2.68833322E-13,  1.27530663E+04,
                      -9.57413256E+01])))

species(name=u'S(995)',
        atoms='H:15 C:12',
        thermo=(NASA([100.00, 993.54],
                     [-1.21346258E+00,  8.43526020E-02,  3.95110756E-05,
                      -1.09218661E-07,  4.65596299E-11,  3.07992502E+04,
                       3.58638913E+01]),
                NASA([993.54, 5000.00],
                     [ 2.48582341E+01,  5.15640076E-02, -1.99549339E-05,
                       3.80148454E-09, -2.77628001E-13,  2.20562691E+04,
                      -1.07675478E+02])))

species(name=u'S(1191)',
        atoms='H:16 C:12',
        thermo=(NASA([100.00, 966.26],
                     [-1.49048930E+00,  8.88249098E-02,  3.71853256E-05,
                      -1.16706601E-07,  5.22707812E-11,  2.21374453E+04,
                       3.51011409E+01]),
                NASA([966.26, 5000.00],
                     [ 2.79145277E+01,  4.48719764E-02, -1.53188329E-05,
                       2.81997997E-09, -2.06993164E-13,  1.28241634E+04,
                      -1.24539286E+02])))

species(name=u'S(1595)',
        atoms='H:15 C:12',
        thermo=(NASA([100.00, 994.96],
                     [-9.10525753E-01,  7.23065908E-02,  7.86529115E-05,
                      -1.50118451E-07,  6.04728055E-11,  3.34535297E+04,
                       3.72742060E+01]),
                NASA([994.96, 5000.00],
                     [ 2.59409054E+01,  5.12026508E-02, -2.04595453E-05,
                       4.01923029E-09, -2.99921063E-13,  2.38116792E+04,
                      -1.13734786E+02])))

species(name=u'S(1745)',
        atoms='H:16 C:12',
        thermo=(NASA([100.00, 1011.71],
                     [-1.20303342E+00,  8.13255676E-02,  5.51392531E-05,
                      -1.24057147E-07,  5.05122313E-11,  1.92626563E+04,
                       3.67681708E+01]),
                NASA([1011.71, 5000.00],
                     [ 2.55049272E+01,  5.47778999E-02, -2.26996210E-05,
                       4.46368808E-09, -3.29899575E-13,  9.81303791E+03,
                      -1.12386527E+02])))

species(name=u'S(1823)',
        atoms='H:12 C:8',
        thermo=(NASA([100.00, 996.08],
                     [-1.55054420E-01,  7.76017702E-02, -3.37454095E-05,
                      -1.34614252E-08,  1.13198940E-11,  8.83061944E+03,
                       2.79505218E+01]),
                NASA([996.08, 5000.00],
                     [ 1.82444884E+01,  3.35255263E-02, -1.22645795E-05,
                       2.20885887E-09, -1.54520851E-13,  3.68623383E+03,
                      -6.81680129E+01])))

species(name=u'S(1840)',
        atoms='H:12 C:8',
        thermo=(NASA([100.00, 996.08],
                     [-1.55054420E-01,  7.76017702E-02, -3.37454095E-05,
                      -1.34614252E-08,  1.13198940E-11,  8.83061944E+03,
                       2.79505218E+01]),
                NASA([996.08, 5000.00],
                     [ 1.82444884E+01,  3.35255263E-02, -1.22645795E-05,
                       2.20885887E-09, -1.54520851E-13,  3.68623383E+03,
                      -6.81680129E+01])))

species(name=u'S(1917)',
        atoms='H:17 C:12',
        thermo=(NASA([100.00, 981.83],
                     [-1.24440800E+00,  8.56287216E-02,  4.13326157E-05,
                      -1.11975012E-07,  4.80364667E-11,  1.79184624E+04,
                       4.06580468E+01]),
                NASA([981.83, 5000.00],
                     [ 2.39190526E+01,  5.44606449E-02, -2.00532209E-05,
                       3.71971097E-09, -2.68253084E-13,  9.53824674E+03,
                      -9.77927157E+01])))

species(name=u'S(2795)',
        atoms='H:15 C:12',
        thermo=(NASA([100.00, 979.04],
                     [-1.05276437E+00,  7.62110242E-02,  6.93007290E-05,
                      -1.44742586E-07,  6.02670606E-11,  3.02745900E+04,
                       3.78176511E+01]),
                NASA([979.04, 5000.00],
                     [ 2.67373390E+01,  4.78497228E-02, -1.77498968E-05,
                       3.39817028E-09, -2.52701319E-13,  2.07507716E+04,
                      -1.16513284E+02])))

species(name=u'S(2868)',
        atoms='H:16 C:12',
        thermo=(NASA([100.00, 994.10],
                     [-1.34606609E+00,  8.52536100E-02,  4.56300651E-05,
                      -1.18355484E-07,  5.01075079E-11,  1.60837411E+04,
                       3.73135939E+01]),
                NASA([994.10, 5000.00],
                     [ 2.62291013E+01,  5.15416407E-02, -2.00547346E-05,
                       3.85749588E-09, -2.83886414E-13,  6.78452550E+03,
                      -1.14754356E+02])))

species(name=u'S(3045)',
        atoms='H:14 C:10',
        thermo=(NASA([100.00, 998.69],
                     [-1.23627680E+00,  9.74725775E-02, -4.38771464E-05,
                      -1.60913124E-08,  1.40765054E-11,  1.88106092E+04,
                       3.74895673E+01]),
                NASA([998.69, 5000.00],
                     [ 2.26390707E+01,  3.99623688E-02, -1.47477851E-05,
                       2.67939624E-09, -1.88703415E-13,  1.21409436E+04,
                      -8.71805628E+01])))

species(name=u'S(3196)',
        atoms='H:14 C:10',
        thermo=(NASA([100.00, 998.69],
                     [-1.23627680E+00,  9.74725775E-02, -4.38771464E-05,
                      -1.60913124E-08,  1.40765054E-11,  1.88106092E+04,
                       3.74895673E+01]),
                NASA([998.69, 5000.00],
                     [ 2.26390707E+01,  3.99623688E-02, -1.47477851E-05,
                       2.67939624E-09, -1.88703415E-13,  1.21409436E+04,
                      -8.71805628E+01])))

species(name=u'S(3275)',
        atoms='H:14 C:10',
        thermo=(NASA([100.00, 1023.31],
                     [-1.35330722E+00,  1.02145774E-01, -6.02126710E-05,
                       2.98654008E-09,  6.82391097E-12,  1.92963887E+04,
                       3.68959319E+01]),
                NASA([1023.31, 5000.00],
                     [ 2.19165271E+01,  4.14492753E-02, -1.56018190E-05,
                       2.82319586E-09, -1.96568943E-13,  1.29494494E+04,
                      -8.36457504E+01])))

species(name=u'S(3513)',
        atoms='H:16 C:12',
        thermo=(NASA([100.00, 1013.38],
                     [-1.68029973E+00,  1.02192481E-01, -1.93078538E-05,
                      -4.56745388E-08,  2.39514915E-11,  1.91137838E+04,
                       4.15234575E+01]),
                NASA([1013.38, 5000.00],
                     [ 2.34628393E+01,  5.29662724E-02, -2.04800689E-05,
                       3.80236380E-09, -2.70010371E-13,  1.14495618E+04,
                      -9.27838033E+01])))

species(name=u'S(3514)',
        atoms='H:16 C:12',
        thermo=(NASA([100.00, 1006.41],
                     [-1.69954117E+00,  1.02097735E-01, -1.75964254E-05,
                      -4.89294542E-08,  2.55083764E-11,  1.84601286E+04,
                       3.89023879E+01]),
                NASA([1006.41, 5000.00],
                     [ 2.39917963E+01,  5.17829766E-02, -1.98041691E-05,
                       3.67129006E-09, -2.61189656E-13,  1.06658121E+04,
                      -9.82396433E+01])))

species(name=u'S(3720)',
        atoms='H:16 C:12',
        thermo=(NASA([100.00, 1102.59],
                     [-1.65146311E+00,  1.06351450E-01, -4.54598346E-05,
                      -8.85786011E-09,  8.69278297E-12,  2.10382917E+04,
                       3.89470211E+01]),
                NASA([1102.59, 5000.00],
                     [ 2.05167249E+01,  5.80947064E-02, -2.35684095E-05,
                       4.36365986E-09, -3.04031909E-13,  1.41946045E+04,
                      -7.90330332E+01])))

species(name=u'S(4090)',
        atoms='H:16 C:12',
        thermo=(NASA([100.00, 995.36],
                     [-1.38075117E+00,  9.24683015E-02,  1.08518849E-05,
                      -7.76445350E-08,  3.54197768E-11,  2.47128441E+04,
                       3.49174086E+01]),
                NASA([995.36, 5000.00],
                     [ 2.34747752E+01,  5.27464139E-02, -1.99528912E-05,
                       3.71247862E-09, -2.66105517E-13,  1.67844433E+04,
                      -9.98517432E+01])))

species(name=u'S(4265)',
        atoms='H:14 C:10',
        thermo=(NASA([100.00, 998.69],
                     [-1.23627680E+00,  9.74725775E-02, -4.38771464E-05,
                      -1.60913124E-08,  1.40765054E-11,  1.88106092E+04,
                       3.74895673E+01]),
                NASA([998.69, 5000.00],
                     [ 2.26390707E+01,  3.99623688E-02, -1.47477851E-05,
                       2.67939624E-09, -1.88703415E-13,  1.21409436E+04,
                      -8.71805628E+01])))

species(name=u'S(4559)',
        atoms='H:15 C:12',
        thermo=(NASA([100.00, 970.90],
                     [-1.71520867E+00,  9.95432566E-02, -4.74357209E-06,
                      -7.04390643E-08,  3.56211412E-11,  3.34415592E+04,
                       3.83477263E+01]),
                NASA([970.90, 5000.00],
                     [ 2.67411184E+01,  4.44003661E-02, -1.54835680E-05,
                       2.80861775E-09, -2.01631064E-13,  2.49892981E+04,
                      -1.13168941E+02])))

species(name=u'S(4618)',
        atoms='H:15 C:12',
        thermo=(NASA([100.00, 984.37],
                     [-5.37896420E-01,  6.91571916E-02,  6.78331849E-05,
                      -1.32481351E-07,  5.38778566E-11,  3.40474077E+04,
                       3.25829999E+01]),
                NASA([984.37, 5000.00],
                     [ 2.21119676E+01,  5.17760824E-02, -1.94438000E-05,
                       3.67256768E-09, -2.68128755E-13,  2.59711429E+04,
                      -9.47052603E+01])))

species(name=u'S(4656)',
        atoms='H:16 C:12',
        thermo=(NASA([100.00, 992.60],
                     [-2.02051020E+00,  1.08734835E-01, -2.89711942E-05,
                      -4.32763322E-08,  2.51062468E-11,  1.92512215E+04,
                       3.85793690E+01]),
                NASA([992.60, 5000.00],
                     [ 2.62576693E+01,  4.80482550E-02, -1.77622499E-05,
                       3.26163402E-09, -2.32284753E-13,  1.10132322E+04,
                      -1.10855289E+02])))

species(name=u'S(5010)',
        atoms='H:18 C:12',
        thermo=(NASA([100.00, 1001.53],
                     [-1.54535413E+00,  9.47590986E-02,  1.73696051E-05,
                      -8.52371055E-08,  3.77426377E-11,  3.72794372E+03,
                       4.01815297E+01]),
                NASA([1001.53, 5000.00],
                     [ 2.34623370E+01,  5.80665933E-02, -2.23091496E-05,
                       4.16759787E-09, -2.98496519E-13, -4.45019219E+03,
                      -9.63248824E+01])))

species(name=u'S(5107)',
        atoms='H:18 C:12',
        thermo=(NASA([100.00, 1018.94],
                     [-1.39397995E+00,  8.87388158E-02,  3.89080288E-05,
                      -1.04728056E-07,  4.31084145E-11,  2.62355708E+03,
                       3.97275587E+01]),
                NASA([1018.94, 5000.00],
                     [ 2.32109485E+01,  6.22741874E-02, -2.53653006E-05,
                       4.86612596E-09, -3.52284915E-13, -6.03102190E+03,
                      -9.73021940E+01])))

species(name=u'S(5194)',
        atoms='H:18 C:12',