units(length='cm', time='s', quantity='mol', act_energy='kcal/mol')

ideal_gas(name='gas',
          elements="H D T C Ci O Oi N Ne Ar He Si S Cl X",
          species="""n-heptane  Ar         He         Ne         N2
                     C2H4(2)    C4H8-1(3)  C4H8-2(4)  C4H6(7)    H2(68)
                     C6H8(119)  S(190)     S(205)     S(216)     S(385)
                     S(542)""",
          reactions='gas-*',
          initial_state=state(temperature=300.0, pressure=OneAtm))

ideal_interface(name='surface1',
                elements="H D T C Ci O Oi N Ne Ar He Si S Cl X",
                species="""X(1)       HX(5)      C2H3X(37)  C4H5X(80)
                          C4H5X(81)  SX(335)    SX(337)    SX(338)
                          SX(340)    SX(341)    SX(342)    SX(343)
                          SX(344)    SX(372)    SX(373)    SX(378)
                          SX(379)    SX(393)    SX(394)    SX(407)
                          SX(413)    SX(436)    SX(437)    SX(439)
                          SX(507)    SX(509)    SX(510)    SX(511)
                          SX(512)    SX(645)    SX(647)    SX(648)
                          SX(650)    SX(651)    SX(652)    SX(702)""",
                site_density=2.72e-09,
                phases="gas",
          reactions='surface1-*',
                initial_state=state(temperature=300.0, pressure=OneAtm))

#-------------------------------------------------------------------------------
# Element data
#-------------------------------------------------------------------------------

element(symbol=u'X', atomic_mass=195.083)
element(symbol=u'Ci', atomic_mass=13.003)
element(symbol=u'D', atomic_mass=2.014)
element(symbol=u'Oi', atomic_mass=18.0)
element(symbol=u'T', atomic_mass=3.016)
#-------------------------------------------------------------------------------
# Species data
#-------------------------------------------------------------------------------

species(name=u'n-heptane',
        atoms='H:16 C:7',
        thermo=(NASA([100.00, 1262.73],
                     [-2.91681405E-03,  7.69373649E-02, -3.48025563E-05,
                       1.86095180E-09,  2.01573617E-12, -2.57829342E+04,
                       3.00312148E+01]),
                NASA([1262.73, 5000.00],
                     [ 1.38377915E+01,  4.85945016E-02, -1.95474548E-05,
                       3.52837178E-09, -2.39064676E-13, -3.05141556E+04,
                      -4.48642836E+01])))

species(name=u'Ar',
        atoms='Ar:1',
        thermo=(NASA([200.00, 1000.00],
                     [ 2.50000000E+00,  0.00000000E+00,  0.00000000E+00,
                       0.00000000E+00,  0.00000000E+00, -7.45375000E+02,
                       4.37967000E+00]),
                NASA([1000.00, 6000.00],
                     [ 2.50000000E+00,  0.00000000E+00,  0.00000000E+00,
                       0.00000000E+00,  0.00000000E+00, -7.45375000E+02,
                       4.37967000E+00])))

species(name=u'He',
        atoms='He:1',
        thermo=(NASA([200.00, 1000.00],
                     [ 2.50000000E+00,  0.00000000E+00,  0.00000000E+00,
                       0.00000000E+00,  0.00000000E+00, -7.45375000E+02,
                       9.28724000E-01]),
                NASA([1000.00, 6000.00],
                     [ 2.50000000E+00,  0.00000000E+00,  0.00000000E+00,
                       0.00000000E+00,  0.00000000E+00, -7.45375000E+02,
                       9.28724000E-01])))

species(name=u'Ne',
        atoms='Ne:1',
        thermo=(NASA([200.00, 1000.00],
                     [ 2.50000000E+00,  0.00000000E+00,  0.00000000E+00,
                       0.00000000E+00,  0.00000000E+00, -7.45375000E+02,
                       3.35532000E+00]),
                NASA([1000.00, 6000.00],
                     [ 2.50000000E+00,  0.00000000E+00,  0.00000000E+00,
                       0.00000000E+00,  0.00000000E+00, -7.45375000E+02,
                       3.35532000E+00])))

species(name=u'N2',
        atoms='N:2',
        thermo=(NASA([200.00, 1000.00],
                     [ 3.53101000E+00, -1.23661000E-04, -5.02999000E-07,
                       2.43531000E-09, -1.40881000E-12, -1.04698000E+03,
                       2.96747000E+00]),
                NASA([1000.00, 6000.00],
                     [ 2.95258000E+00,  1.39690000E-03, -4.92632000E-07,
                       7.86010000E-11, -4.60755000E-15, -9.23949000E+02,
                       5.87189000E+00])))

species(name=u'C2H4(2)',
        atoms='H:4 C:2',
        thermo=(NASA([100.00, 979.36],
                     [ 3.97471606E+00, -4.75844285E-03,  4.16783770E-05,
                      -4.51392516E-08,  1.54224761E-11,  4.91540746E+03,
                       3.62430844E+00]),
                NASA([979.36, 5000.00],
                     [ 3.55660610E+00,  1.10627464E-02, -4.17019079E-06,
                       7.85586770E-10, -5.70060829E-14,  4.32046489E+03,
                       2.17719479E+00])))

species(name=u'C4H8-1(3)',
        atoms='H:8 C:4',
        thermo=(NASA([100.00, 1007.28],
                     [ 2.58772906E+00,  2.32777969E-02,  1.93412349E-05,
                      -3.55496333E-08,  1.36906009E-11, -1.91872926E+03,
                       1.45750618E+01]),
                NASA([1007.28, 5000.00],
                     [ 7.20517168E+00,  2.36361568E-02, -9.03150028E-06,
                       1.65392666E-09, -1.16019260E-13, -3.79733937E+03,
                      -1.24426257E+01])))

species(name=u'C4H8-2(4)',
        atoms='H:8 C:4',
        thermo=(NASA([100.00, 1157.79],
                     [ 2.51998327E+00,  2.76812799E-02,  9.43783469E-07,
                      -1.25009101E-08,  4.67144666E-12, -3.34374767E+03,
                       1.30195623E+01]),
                NASA([1157.79, 5000.00],
                     [ 6.04225708E+00,  2.60072350E-02, -1.04843374E-05,
                       1.90880922E-09, -1.30600505E-13, -4.86276511E+03,
                      -7.52715109E+00])))

species(name=u'C4H6(7)',
        atoms='H:6 C:4',
        thermo=(NASA([100.00, 946.05],
                     [ 2.80599310E+00,  1.02584471E-02,  6.17260255E-05,
                      -9.01642687E-08,  3.59116961E-11,  1.16584972E+04,
                       1.20621434E+01]),
                NASA([946.05, 5000.00],
                     [ 1.24693720E+01,  1.00553901E-02, -2.41206872E-06,
                       4.57077303E-10, -3.93160571E-14,  8.01077795E+03,
                      -4.36374720E+01])))

species(name=u'H2(68)',
        atoms='H:2',
        thermo=(NASA([100.00, 1959.08],
                     [ 3.43536412E+00,  2.12710353E-04, -2.78625043E-07,
                       3.40267167E-10, -7.76031998E-14, -1.03135984E+03,
                      -3.90841732E+00]),
                NASA([1959.08, 5000.00],
                     [ 2.78816583E+00,  5.87640942E-04,  1.59010417E-07,
                      -5.52739026E-11,  4.34310984E-15, -5.96144270E+02,
                       1.12732655E-01])))

species(name=u'C6H8(119)',
        atoms='H:8 C:6',
        thermo=(NASA([100.00, 972.94],
                     [ 1.82686070E+00,  3.47046353E-02,  2.41070171E-05,
                      -5.44847920E-08,  2.29388832E-11,  1.99100661E+04,
                       1.81393315E+01]),
                NASA([972.94, 5000.00],
                     [ 1.21686202E+01,  2.40472785E-02, -8.58151834E-06,
                       1.57034031E-09, -1.12795334E-13,  1.63897115E+04,
                      -3.92195169E+01])))

species(name=u'S(190)',
        atoms='H:14 C:10',
        thermo=(NASA([100.00, 968.43],
                     [-1.78657670E-01,  6.27636610E-02,  6.13275679E-05,
                      -1.25568699E-07,  5.26247225E-11,  1.23467547E+04,
                       3.16624716E+01]),
                NASA([968.43, 5000.00],
                     [ 2.28001036E+01,  3.95488872E-02, -1.37666755E-05,
                       2.57450736E-09, -1.90686366E-13,  4.53405575E+03,
                      -9.58178615E+01])))

species(name=u'S(205)',
        atoms='H:16 C:12',
        thermo=(NASA([100.00, 980.77],
                     [-2.21845665E+00,  1.15202302E-01, -4.46058253E-05,
                      -2.89292454E-08,  2.08193354E-11,  3.97133228E+04,
                       4.48687920E+01]),
                NASA([980.77, 5000.00],
                     [ 2.59409200E+01,  4.89148103E-02, -1.74910345E-05,
                       3.12129948E-09, -2.18247198E-13,  3.18543069E+04,
                      -1.02343316E+02])))

species(name=u'S(216)',
        atoms='H:16 C:12',
        thermo=(NASA([100.00, 989.29],
                     [-1.49871027E+00,  8.97231513E-02,  3.13728211E-05,
                      -1.05849951E-07,  4.65472901E-11,  2.08342656E+04,
                       3.86324941E+01]),
                NASA([989.29, 5000.00],
                     [ 2.71231573E+01,  4.82447418E-02, -1.83146882E-05,
                       3.49879125E-09, -2.57494969E-13,  1.15378770E+04,
                      -1.17506583E+02])))

species(name=u'S(385)',
        atoms='H:16 C:12',
        thermo=(NASA([100.00, 990.94],
                     [-1.53673879E+00,  9.50296733E-02,  8.13325447E-06,
                      -7.82185025E-08,  3.63989841E-11,  2.10168816E+04,
                       3.81765950E+01]),
                NASA([990.94, 5000.00],
                     [ 2.49483558E+01,  5.05143791E-02, -1.89287732E-05,
                       3.52660923E-09, -2.53947844E-13,  1.27044184E+04,
                      -1.04814787E+02])))

species(name=u'S(542)',
        atoms='H:15 C:12',
        thermo=(NASA([100.00, 992.27],
                     [-1.38340081E+00,  8.84602237E-02,  3.06336545E-05,
                      -1.02014839E-07,  4.45162985E-11,  3.06168321E+04,
                       3.52683180E+01]),
                NASA([992.27, 5000.00],
                     [ 2.55878851E+01,  5.06718152E-02, -1.94766159E-05,
                       3.69864365E-09, -2.69824719E-13,  2.17720278E+04,
                      -1.12240478E+02])))

species(name=u'X(1)',
        atoms='X:1',
        thermo=(NASA([100.00, 1554.80],
                     [ 7.10139498E-03, -4.25619522E-05,  8.98533016E-08,
                      -7.80193649E-11,  2.32465471E-14, -8.76101712E-01,
                      -3.11211229E-02]),
                NASA([1554.80, 5000.00],
                     [ 1.60299900E-01, -2.52235409E-04,  1.14181275E-07,
                      -1.21471653E-11,  3.85790025E-16, -7.08100885E+01,
                      -9.09527530E-01])))

species(name=u'HX(5)',
        atoms='H:1 X:1',
        thermo=(NASA([100.00, 952.91],
                     [-3.80965452E-01,  5.47228709E-03,  2.60912778E-06,
                      -9.64961980E-09,  4.63946753E-12, -3.62029043E+03,
                       1.01725550E+00]),
                NASA([952.91, 5000.00],
                     [ 2.80339655E+00, -5.41047017E-04,  4.99507978E-07,
                      -7.54963647E-11,  3.06772366E-15, -4.56103985E+03,
                      -1.59436787E+01])))

species(name=u'C2H3X(37)',
        atoms='H:3 C:2 X:1',
        thermo=(NASA([100.00, 928.62],
                     [ 3.83091018E+00, -8.76381562E-03,  6.97956896E-05,
                      -8.67969174E-08,  3.33218121E-11,  9.57839188E+03,
                      -1.81151753E+01]),
                NASA([928.62, 5000.00],
                     [ 8.78054562E+00,  1.92497720E-03,  8.25825014E-07,
                      -1.63749818E-10,  5.71728318E-15,  7.27898875E+03,
                      -4.90588618E+01])))

species(name=u'C4H5X(80)',
        atoms='H:5 C:4 X:1',
        thermo=(NASA([100.00, 936.52],
                     [ 2.68471723E+00,  1.36244496E-02,  5.32591849E-05,
                      -8.32912448E-08,  3.41499374E-11,  1.16716221E+04,
                      -1.06510487E+01]),
                NASA([936.52, 5000.00],
                     [ 1.29012266E+01,  8.96921861E-03, -1.71920076E-06,
                       2.89744517E-10, -2.58686364E-14,  8.04858312E+03,
                      -6.83963397E+01])))

species(name=u'C4H5X(81)',
        atoms='H:5 C:4 X:1',
        thermo=(NASA([100.00, 928.63],
                     [ 2.64232495E+00,  8.31109593E-03,  8.12146261E-05,
                      -1.21398701E-07,  4.98630759E-11,  1.68545308E+04,
                      -1.03932963E+01]),
                NASA([928.63, 5000.00],
                     [ 1.69490474E+01,  2.00818812E-03,  2.03468841E-06,
                      -4.02657023E-10,  1.85400094E-14,  1.18120364E+04,
                      -9.11990785E+01])))

species(name=u'SX(335)',
        atoms='H:13 C:10 X:1',
        thermo=(NASA([100.00, 980.09],
                     [-7.11601081E-02,  5.51564532E-02,  9.33356300E-05,
                      -1.59547857E-07,  6.38088151E-11,  1.53964082E+04,
                       9.46132705E+00]),
                NASA([980.09, 5000.00],
                     [ 2.40867320E+01,  4.15026012E-02, -1.57682102E-05,
                       3.09421209E-09, -2.34162753E-13,  6.58146354E+03,
                      -1.27412990E+02])))

species(name=u'SX(337)',
        atoms='H:15 C:12 X:1',
        thermo=(NASA([100.00, 987.58],
                     [-9.53673816E-01,  6.94567418E-02,  9.89953662E-05,
                      -1.75789719E-07,  7.03673048E-11,  2.08206604E+04,
                       1.65075881E+01]),
                NASA([987.58, 5000.00],
                     [ 2.75829861E+01,  5.08329941E-02, -1.99853220E-05,
                       3.94206265E-09, -2.96893311E-13,  1.04559973E+04,
                      -1.44747128E+02])))

species(name=u'SX(338)',
        atoms='H:15 C:12 X:1',
        thermo=(NASA([100.00, 979.08],
                     [-1.33399033E+00,  8.15327144E-02,  6.10796305E-05,
                      -1.40544064E-07,  5.96430299E-11,  2.48646581E+04,
                       1.53202014E+01]),
                NASA([979.08, 5000.00],
                     [ 2.88000583E+01,  4.54039529E-02, -1.68327432E-05,
                       3.24878532E-09, -2.43575828E-13,  1.47948859E+04,
                      -1.50712786E+02])))

species(name=u'SX(340)',
        atoms='H:15 C:12 X:1',
        thermo=(NASA([100.00, 975.90],
                     [-1.51414519E+00,  8.61139252E-02,  4.96902414E-05,
                      -1.31247290E-07,  5.71155160E-11,  2.45617435E+04,
                       1.54842336E+01]),
                NASA([975.90, 5000.00],
                     [ 2.97270467E+01,  4.33700161E-02, -1.57320116E-05,
                       3.01842347E-09, -2.26501124E-13,  1.44018912E+04,
                      -1.55286980E+02])))

species(name=u'SX(341)',
        atoms='H:15 C:12 X:1',
        thermo=(NASA([100.00, 975.90],
                     [-1.51414519E+00,  8.61139252E-02,  4.96902414E-05,
                      -1.31247290E-07,  5.71155160E-11,  2.45617435E+04,
                       1.54842336E+01]),
                NASA([975.90, 5000.00],
                     [ 2.97270467E+01,  4.33700161E-02, -1.57320116E-05,
                       3.01842347E-09, -2.26501124E-13,  1.44018912E+04,
                      -1.55286980E+02])))

species(name=u'SX(342)',
        atoms='H:15 C:12 X:1',
        thermo=(NASA([100.00, 970.41],
                     [-1.56569509E+00,  8.81414876E-02,  4.50605462E-05,
                      -1.27176203E-07,  5.60968067E-11,  1.98907551E+04,
                       1.47918280E+01]),
                NASA([970.41, 5000.00],
                     [ 2.93698510E+01,  4.39659324E-02, -1.54771168E-05,
                       2.91255684E-09, -2.16617391E-13,  9.96268515E+03,
                      -1.53743548E+02])))

species(name=u'SX(343)',
        atoms='H:15 C:12 X:1',
        thermo=(NASA([100.00, 970.72],
                     [-1.55417774E+00,  8.50306529E-02,  5.78320529E-05,
                      -1.43136626E-07,  6.21619029E-11,  2.56781023E+04,
                       1.55571823E+01]),
                NASA([970.72, 5000.00],
                     [ 3.11250979E+01,  4.10896422E-02, -1.44501156E-05,
                       2.77759506E-09, -2.10876373E-13,  1.50593707E+04,
                      -1.63146059E+02])))

species(name=u'SX(344)',
        atoms='H:15 C:12 X:1',
        thermo=(NASA([100.00, 970.72],
                     [-1.55417774E+00,  8.50306529E-02,  5.78320529E-05,
                      -1.43136626E-07,  6.21619029E-11,  2.56781023E+04,
                       1.55571823E+01]),
                NASA([970.72, 5000.00],
                     [ 3.11250979E+01,  4.10896422E-02, -1.44501156E-05,
                       2.77759506E-09, -2.10876373E-13,  1.50593707E+04,
                      -1.63146059E+02])))

species(name=u'SX(372)',
        atoms='H:15 C:12 X:1',
        thermo=(NASA([100.00, 964.56],
                     [-1.75671250E+00,  9.66647298E-02,  1.57481005E-05,
                      -9.63851787E-08,  4.56735206E-11,  2.08086246E+04,
                       1.75757747E+01]),
                NASA([964.56, 5000.00],
                     [ 2.84210888E+01,  4.39695462E-02, -1.49754042E-05,
                       2.72366072E-09, -1.97971363E-13,  1.16166407E+04,
                      -1.44396594E+02])))

species(name=u'SX(373)',
        atoms='H:15 C:12 X:1',
        thermo=(NASA([100.00, 977.06],
                     [-1.29321385E+00,  8.66749469E-02,  3.43353725E-05,
                      -1.07202573E-07,  4.72030711E-11,  2.42466698E+04,
                       1.53275985E+01]),
                NASA([977.06, 5000.00],
                     [ 2.53347610E+01,  4.91684887E-02, -1.78614970E-05,
                       3.31550889E-09, -2.40575403E-13,  1.56300842E+04,
                      -1.29985496E+02])))

species(name=u'SX(378)',
        atoms='H:15 C:12 X:1',
        thermo=(NASA([100.00, 981.44],
                     [-1.48485114E+00,  8.67553206E-02,  4.39699993E-05,
                      -1.22750540E-07,  5.34340252E-11,  2.75138681E+04,
                       1.82548250E+01]),
                NASA([981.44, 5000.00],
                     [ 2.88299677E+01,  4.48312255E-02, -1.67127878E-05,
                       3.21480867E-09, -2.39808226E-13,  1.76321195E+04,
                      -1.47457030E+02])))

species(name=u'SX(379)',
        atoms='H:15 C:12 X:1',
        thermo=(NASA([100.00, 983.60],
                     [-1.42362277E+00,  8.55736925E-02,  5.11149877E-05,
                      -1.27882240E-07,  5.45019018E-11,  1.79838383E+04,
                       1.44913452E+01]),
                NASA([983.60, 5000.00],
                     [ 2.72262458E+01,  5.03091262E-02, -1.90066716E-05,
                       3.62253129E-09, -2.66887245E-13,  8.41770265E+03,
                      -1.43232268E+02])))

species(name=u'SX(393)',
        atoms='H:15 C:12 X:1',
        thermo=(NASA([100.00, 1001.52],
                     [-1.31030883E+00,  9.26924766E-02,  4.68331905E-06,
                      -6.82413544E-08,  3.14724401E-11,  2.35074393E+04,
                       2.12825238E+01]),
                NASA([1001.52, 5000.00],
                     [ 2.20664136E+01,  5.45618914E-02, -2.09333815E-05,
                       3.87729474E-09, -2.75645478E-13,  1.60548645E+04,
                      -1.05361747E+02])))

species(name=u'SX(394)',
        atoms='H:15 C:12 X:1',
        thermo=(NASA([100.00, 977.25],
                     [-1.69881716E+00,  9.65928099E-02,  9.51811155E-06,
                      -8.60518252E-08,  4.08552434E-11,  2.70914571E+04,
                       1.79478750E+01]),
                NASA([977.25, 5000.00],
                     [ 2.75628281E+01,  4.50996572E-02, -1.62449630E-05,
                       3.01670152E-09, -2.19553810E-13,  1.81119027E+04,
                      -1.39230534E+02])))

species(name=u'SX(407)',
        atoms='H:13 C:10 X:1',
        thermo=(NASA([100.00, 974.47],
                     [-5.67822847E-01,  7.44332444E-02,  2.79708228E-05,
                      -9.21680029E-08,  4.10757439E-11,  1.87459723E+04,
                       1.12948281E+01]),
                NASA([974.47, 5000.00],
                     [ 2.33669438E+01,  3.89342397E-02, -1.39733942E-05,
                       2.60583334E-09, -1.90753815E-13,  1.11019471E+04,
                      -1.18844231E+02])))

species(name=u'SX(413)',
        atoms='H:15 C:12 X:1',
        thermo=(NASA([100.00, 977.25],
                     [-1.69881716E+00,  9.65928099E-02,  9.51811155E-06,
                      -8.60518252E-08,  4.08552434E-11,  2.94565863E+04,
                       1.72547278E+01]),
                NASA([977.25, 5000.00],
                     [ 2.75628281E+01,  4.50996572E-02, -1.62449630E-05,
                       3.01670152E-09, -2.19553810E-13,  2.04770318E+04,
                      -1.39923681E+02])))

species(name=u'SX(436)',
        atoms='H:13 C:10 X:1',
        thermo=(NASA([100.00, 989.97],
                     [ 5.10077553E-02,  5.68671363E-02,  7.82865244E-05,
                      -1.36598342E-07,  5.40706303E-11,  1.18888194E+04,
                       7.76929655E+00]),
                NASA([989.97, 5000.00],
                     [ 2.06205284E+01,  4.72489196E-02, -1.84967193E-05,
                       3.56725152E-09, -2.63099874E-13,  4.21483578E+03,
                      -1.09448512E+02])))

species(name=u'SX(437)',
        atoms='H:13 C:10 X:1',
        thermo=(NASA([100.00, 958.13],
                     [-1.99175339E-01,  5.92036841E-02,  7.95319528E-05,
                      -1.50923311E-07,  6.32287133E-11,  1.60744566E+04,
                       8.53306327E+00]),
                NASA([958.13, 5000.00],
                     [ 2.54829815E+01,  3.45437071E-02, -1.11103432E-05,
                       2.07701086E-09, -1.58288568E-13,  7.36363617E+03,
                      -1.34045294E+02])))

species(name=u'SX(439)',
        atoms='H:15 C:12 X:1',
        thermo=(NASA([100.00, 914.35],
                     [-1.41921871E+00,  4.71127446E-02,  2.36213550E-04,
                      -3.88763118E-07,  1.66990332E-10,  2.30781070E+04,
                       1.71124100E+01]),
                NASA([914.35, 5000.00],
                     [ 5.35599926E+01, -5.77116006E-03,  1.51580314E-05,
                      -3.15911133E-09,  1.96562338E-13,  5.18060008E+03,
                      -2.86098319E+02])))

species(name=u'SX(507)',
        atoms='H:13 C:10 X:1',
        thermo=(NASA([100.00, 961.68],
                     [-1.93863812E-02,  5.46304367E-02,  9.08739163E-05,
                      -1.60125274E-07,  6.56987632E-11,  1.63773851E+04,
                       9.06327250E+00]),
                NASA([961.68, 5000.00],
                     [ 2.45403717E+01,  3.66031015E-02, -1.22253040E-05,
                       2.31065638E-09, -1.75630818E-13,  7.76354739E+03,
                      -1.28689343E+02])))

species(name=u'SX(509)',
        atoms='H:13 C:10 X:1',
        thermo=(NASA([100.00, 958.13],
                     [-1.99175339E-01,  5.92036841E-02,  7.95319528E-05,
                      -1.50923311E-07,  6.32287133E-11,  1.60744566E+04,
                       8.53306327E+00]),
                NASA([958.13, 5000.00],
                     [ 2.54829815E+01,  3.45437071E-02, -1.11103432E-05,
                       2.07701086E-09, -1.58288568E-13,  7.36363617E+03,
                      -1.34045294E+02])))

species(name=u'SX(510)',
        atoms='H:13 C:10 X:1',
        thermo=(NASA([100.00, 952.13],
                     [-2.49847327E-01,  6.12144299E-02,  7.49958111E-05,
                      -1.47032839E-07,  6.23174878E-11,  1.14034335E+04,
                       7.83789488E+00]),
                NASA([952.13, 5000.00],
                     [ 2.51514765E+01,  3.50977612E-02, -1.08320535E-05,
                       1.96574611E-09, -1.47965058E-13,  2.91305667E+03,
                      -1.32647586E+02])))

species(name=u'SX(511)',
        atoms='H:13 C:10 X:1',
        thermo=(NASA([100.00, 954.15],
                     [-2.41199686E-01,  5.81398326E-02,  8.76286779E-05,
                      -1.62794886E-07,  6.82890155E-11,  1.71909027E+04,
                       8.61338984E+00]),
                NASA([954.15, 5000.00],
                     [ 2.69109388E+01,  3.22137666E-02, -9.80038873E-06,
                       1.82964477E-09, -1.42127164E-13,  8.00813917E+03,
                      -1.42073507E+02])))

species(name=u'SX(512)',
        atoms='H:13 C:10 X:1',
        thermo=(NASA([100.00, 954.15],
                     [-2.41199686E-01,  5.81398326E-02,  8.76286779E-05,
                      -1.62794886E-07,  6.82890155E-11,  1.71909027E+04,
                       8.61338984E+00]),
                NASA([954.15, 5000.00],
                     [ 2.69109388E+01,  3.22137666E-02, -9.80038873E-06,
                       1.82964477E-09, -1.42127164E-13,  8.00813917E+03,
                      -1.42073507E+02])))

species(name=u'SX(645)',
        atoms='H:15 C:12 X:1',
        thermo=(NASA([100.00, 964.54],
                     [-1.10844877E+00,  7.50074815E-02,  7.93099734E-05,
                      -1.61371476E-07,  6.80380278E-11,  2.51094165E+04,
                       1.69968251E+01]),
                NASA([964.54, 5000.00],
                     [ 2.88063028E+01,  4.32037153E-02, -1.47006807E-05,
                       2.77033107E-09, -2.08641824E-13,  1.50472747E+04,
                      -1.48490174E+02])))

species(name=u'SX(647)',
        atoms='H:15 C:12 X:1',
        thermo=(NASA([100.00, 974.76],
                     [-1.54764925E+00,  9.13659394E-02,  2.66459809E-05,
                      -1.03874422E-07,  4.70793245E-11,  2.47441658E+04,
                       1.50121895E+01]),
                NASA([974.76, 5000.00],
                     [ 2.75344795E+01,  4.56699367E-02, -1.63635908E-05,
                       3.05037899E-09, -2.23297492E-13,  1.55758783E+04,
                      -1.42495203E+02])))

species(name=u'SX(648)',
        atoms='H:15 C:12 X:1',
        thermo=(NASA([100.00, 974.76],
                     [-1.54764925E+00,  9.13659394E-02,  2.66459809E-05,
                      -1.03874422E-07,  4.70793245E-11,  2.47441658E+04,
                       1.50121895E+01]),
                NASA([974.76, 5000.00],
                     [ 2.75344795E+01,  4.56699367E-02, -1.63635908E-05,
                       3.05037899E-09, -2.23297492E-13,  1.55758783E+04,
                      -1.42495203E+02])))

species(name=u'SX(650)',
        atoms='H:15 C:12 X:1',
        thermo=(NASA([100.00, 968.81],
                     [-1.58640374E+00,  9.02666767E-02,  3.48481932E-05,
                      -1.15848892E-07,  5.21652174E-11,  2.58604701E+04,
                       1.50806133E+01]),
                NASA([968.81, 5000.00],
                     [ 2.89302252E+01,  4.33937055E-02, -1.50841748E-05,
                       2.81015203E-09, -2.07723595E-13,  1.62342563E+04,
                      -1.50341436E+02])))

species(name=u'SX(651)',
        atoms='H:15 C:12 X:1',
        thermo=(NASA([100.00, 968.81],
                     [-1.58640374E+00,  9.02666767E-02,  3.48481932E-05,
                      -1.15848892E-07,  5.21652174E-11,  2.58604701E+04,
                       1.50806133E+01]),
                NASA([968.81, 5000.00],
                     [ 2.89302252E+01,  4.33937055E-02, -1.50841748E-05,
                       2.81015203E-09, -2.07723595E-13,  1.62342563E+04,
                      -1.50341436E+02])))

species(name=u'SX(652)',
        atoms='H:15 C:12 X:1',
        thermo=(NASA([100.00, 968.81],
                     [-1.58640374E+00,  9.02666767E-02,  3.48481932E-05,
                      -1.15848892E-07,  5.21652174E-11,  2.58604701E+04,
                       1.50806133E+01]),
                NASA([968.81, 5000.00],
                     [ 2.89302252E+01,  4.33937055E-02, -1.50841748E-05,
                       2.81015203E-09, -2.07723595E-13,  1.62342563E+04,
                      -1.50341436E+02])))

species(name=u'SX(702)',
        atoms='H:13 C:10 X:1',
        thermo=(NASA([100.00, 906.87],
                     [-1.27215710E-01,  2.04236670E-02,  2.65572077E-04,
                      -4.08356139E-07,  1.73369457E-10,  1.45918177E+04,
                       1.02463751E+01]),
                NASA([906.87, 5000.00],
                     [ 4.96569276E+01, -1.51683874E-02,  2.01052877E-05,
                      -4.17680617E-09,  2.71062971E-13, -2.00364041E+03,
                      -2.66781236E+02])))

#-------------------------------------------------------------------------------
# Reaction data
#-------------------------------------------------------------------------------
#  Reaction index: Chemkin #1; RMG #362
#  Template reaction: 1,4_Linear_birad_scission
#  Flux pairs: S(205), C6H8(119); S(205), C6H8(119);
#  Exact match found for rate rule [RJJ]
#  Euclidian distance = 0
#  family: 1,4_Linear_birad_scission
#  Ea raised from 0.0 to 1.4 kJ/mol to match endothermicity of reaction.

# Reaction 1
reaction('S(205) <=> C6H8(119) + C6H8(119)', [5.000000e+12, 0.0, 0.338],
         id='gas-1')
#  Reaction index: Chemkin #2; RMG #373
#  Template reaction: Diels_alder_addition
#  Flux pairs: C6H8(119), S(216); C6H8(119), S(216);
#  Estimated using template [diene_unsub_unsub_out;diene_in;ene] for rate rule [diene_unsub_unsub_out;diene_in_HDe;ene_De2_2H]
#  Euclidian distance = 2.2360679775
#  Multiplied by reaction path degeneracy 2.0
#  family: Diels_alder_addition

# Reaction 2
reaction('C6H8(119) + C6H8(119) <=> S(216)', [3.076471e+08, 0.441, 24.113],
         options='duplicate',
         id='gas-2')
#  Reaction index: Chemkin #3; RMG #376
#  Template reaction: Diels_alder_addition
#  Flux pairs: C6H8(119), S(216); C6H8(119), S(216);
#  Estimated using template [diene_unsub_unsub_out;diene_in;ene] for rate rule [diene_unsub_unsub_out;diene_in_DeH;ene_2H_De2]
#  Euclidian distance = 2.2360679775
#  family: Diels_alder_addition

# Reaction 3
reaction('C6H8(119) + C6H8(119) <=> S(216)', [1.538235e+08, 0.441, 24.113],
         options='duplicate',
         id='gas-3')