units(length='cm', time='s', quantity='mol', act_energy='kcal/mol')

ideal_gas(name='gas',
          elements="H D T C Ci O Oi N Ne Ar He Si S Cl X",
          species="""n-heptane   Ar          He          Ne
                     N2          C2H4(2)     C4H8-1(3)   C4H8-2(4)
                     C4H6(7)     C6H8(9)     C3H6(32)    H2(68)
                     C8H10(113)  S(181)      C6H10(352)  C5H8c(380)
                     C6H10(572)  C8H12(623)  C8H12(652)  C2H6(808)
                     C8H14(826)  C8H14(827)  C8H14(828)  CH4(830)
                     C5H8g(837)  C7H10(842)  C7H12(857)  C3H8(858)
                     S(874)      C4H8(945)   S(1642)     S(1938)
                     S(2465)     S(2697)     S(3187)     S(3945)
                     S(4865)     S(4936)     S(4966)     S(5065)
                     S(5448)     S(6299)     S(6346)     S(6820)
                     S(7076)     S(7132)     S(7611)     S(9163)""",
          reactions='gas-*',
          transport='Mix',
          initial_state=state(temperature=300.0, pressure=OneAtm))

ideal_interface(name='surface1',
                elements="H D T C Ci O Oi N Ne Ar He Si S Cl X",
                species="""X(1)        HX(5)       C2H3X(37)   allylX(38)
                          CH3X(39)    C2H5X(40)   C4H7X(41)   C4H7X(42)
                          C4H7X(43)   C4H7X(44)   C3H5X(45)   C4H7X(46)
                          C4H7X(47)   C4H5X(80)   C4H5X(81)   C6H9X(98)
                          SX(109)     SX(110)     C6H7X(132)  C6H7X(133)
                          C6H7X(134)  C6H9X(159)  C6H9X(192)  SX(206)
                          SX(219)     C6H7X(233)  C6H9X(343)  C5H7X(346)
                          C6H9X(385)  C6H9X(386)  C6H9X(387)  SX(423)
                          SX(424)     SX(426)     C6H9X(535)  C6H9X(564)
                          C6H9X(565)  C6H9X(566)  SX(619)     C6H9X(645)
                          C6H9X(646)  C6H9X(705)  C3H5X(708)  SX(711)
                          C6H9X(743)  C4H7X(745)  SX(775)     SX(811)
                          C3H7X(831)  SX(839)     SX(840)     SX(861)
                          C4H7X(975)  SX(1002)    SX(1075)    SX(1170)
                          SX(1171)    SX(1172)    SX(1412)    SX(1414)
                          SX(1475)    SX(1476)    SX(1477)    SX(1478)
                          SX(1479)    SX(1529)    SX(1530)    SX(1772)
                          SX(1781)    SX(1950)    SX(1953)    SX(2003)
                          SX(2005)    SX(2182)    SX(2240)    SX(2241)
                          SX(2385)    SX(2413)    SX(2437)    SX(2453)
                          SX(2454)    SX(2523)    SX(2652)    SX(2668)
                          SX(2689)    SX(2712)    SX(2757)    SX(3126)
                          SX(3163)    SX(3213)    SX(3272)    SX(3378)
                          SX(3407)    SX(3476)    SX(3477)    SX(3478)
                          SX(3479)    SX(3480)    SX(3764)    SX(3766)
                          SX(3805)    SX(3876)    SX(3905)    SX(3932)
                          SX(3933)    SX(4117)    SX(4119)    SX(4149)
                          SX(4150)    SX(4161)    SX(4167)    SX(4226)
                          SX(4228)    SX(4229)    SX(4230)    SX(4231)
                          SX(4366)    SX(4396)    SX(4480)    SX(4481)
                          SX(4509)    SX(4590)    SX(4591)    SX(4592)
                          SX(4845)    SX(4861)    SX(4862)    SX(4867)
                          SX(4954)    SX(4957)    SX(5013)    SX(5073)
                          SX(5074)    SX(5075)    SX(5076)    SX(5077)
                          SX(5163)    SX(5207)    SX(5208)    SX(5212)
                          SX(5214)    SX(5256)    SX(5326)    SX(5455)
                          SX(5457)    SX(5458)    SX(5459)    SX(5686)
                          SX(5717)    SX(5832)    SX(5840)    SX(5893)
                          SX(5992)    SX(6024)    SX(6058)    SX(6161)
                          SX(6198)    SX(6199)    SX(6200)    SX(6201)
                          SX(6236)    SX(6289)    SX(6316)    SX(6380)
                          SX(6403)    SX(6426)    SX(6460)    SX(6461)
                          SX(6511)    SX(6513)    SX(6537)    SX(6538)
                          SX(6562)    SX(6586)    SX(6718)    SX(6830)
                          SX(6842)    SX(6930)    SX(6932)    SX(6971)
                          SX(7067)    SX(7093)    SX(7094)    SX(7100)
                          SX(7114)    SX(7128)    SX(7136)    SX(7137)
                          SX(7140)    SX(7177)    SX(7239)    SX(7240)
                          SX(7388)    SX(7445)    SX(7579)    SX(7607)
                          SX(7609)    SX(7707)    SX(7781)    SX(7821)
                          SX(7869)    SX(8285)    SX(8626)    SX(8627)
                          SX(8628)    SX(8911)    SX(9198)    SX(9326)
                          SX(9356)    SX(9467)    SX(9520)    SX(9521)
                          SX(9826)    SX(9842)    SX(9844)    SX(9847)
                          SX(9848)    SX(9852)    SX(9856)    SX(9869)
                          SX(9909)    SX(9924)    SX(10015)   SX(10045)
                          SX(10085)   SX(10216)   SX(10274)   SX(10278)
                          SX(10283)   SX(10284)   SX(10285)   SX(10295)
                          SX(10374)   SX(10410)   SX(10568)   SX(10569)
                          SX(10570)   SX(10571)   SX(10741)   SX(10836)
                          SX(11487)   SX(11494)""",
                site_density=2.72e-09,
                phases="gas",
          reactions='surface1-*',
                initial_state=state(temperature=300.0, pressure=OneAtm))

#-------------------------------------------------------------------------------
# Element data
#-------------------------------------------------------------------------------

element(symbol=u'X', atomic_mass=195.083)
element(symbol=u'Ci', atomic_mass=13.003)
element(symbol=u'D', atomic_mass=2.014)
element(symbol=u'Oi', atomic_mass=18.0)
element(symbol=u'T', atomic_mass=3.016)
#-------------------------------------------------------------------------------
# Species data
#-------------------------------------------------------------------------------

species(name=u'n-heptane',
        atoms='H:16 C:7',
        thermo=(NASA([100.00, 1262.73],
                     [-2.91681405E-03,  7.69373649E-02, -3.48025563E-05,
                       1.86095180E-09,  2.01573617E-12, -2.57829342E+04,
                       3.00312148E+01]),
                NASA([1262.73, 5000.00],
                     [ 1.38377915E+01,  4.85945016E-02, -1.95474548E-05,
                       3.52837178E-09, -2.39064676E-13, -3.05141556E+04,
                      -4.48642836E+01])),
        transport=gas_transport(geom='nonlinear',
                                diam=6.366,
                                well_depth=402.997))

species(name=u'Ar',
        atoms='Ar:1',
        thermo=(NASA([200.00, 1000.00],
                     [ 2.50000000E+00,  0.00000000E+00,  0.00000000E+00,
                       0.00000000E+00,  0.00000000E+00, -7.45375000E+02,
                       4.37967000E+00]),
                NASA([1000.00, 6000.00],
                     [ 2.50000000E+00,  0.00000000E+00,  0.00000000E+00,
                       0.00000000E+00,  0.00000000E+00, -7.45375000E+02,
                       4.37967000E+00])),
        transport=gas_transport(geom='atom',
                                diam=3.33,
                                well_depth=136.5))

species(name=u'He',
        atoms='He:1',
        thermo=(NASA([200.00, 1000.00],
                     [ 2.50000000E+00,  0.00000000E+00,  0.00000000E+00,
                       0.00000000E+00,  0.00000000E+00, -7.45375000E+02,
                       9.28724000E-01]),
                NASA([1000.00, 6000.00],
                     [ 2.50000000E+00,  0.00000000E+00,  0.00000000E+00,
                       0.00000000E+00,  0.00000000E+00, -7.45375000E+02,
                       9.28724000E-01])),
        transport=gas_transport(geom='atom',
                                diam=2.576,
                                well_depth=10.2))

species(name=u'Ne',
        atoms='Ne:1',
        thermo=(NASA([200.00, 1000.00],
                     [ 2.50000000E+00,  0.00000000E+00,  0.00000000E+00,
                       0.00000000E+00,  0.00000000E+00, -7.45375000E+02,
                       3.35532000E+00]),
                NASA([1000.00, 6000.00],
                     [ 2.50000000E+00,  0.00000000E+00,  0.00000000E+00,
                       0.00000000E+00,  0.00000000E+00, -7.45375000E+02,
                       3.35532000E+00])),
        transport=gas_transport(geom='atom',
                                diam=3.758,
                                well_depth=148.6))

species(name=u'N2',
        atoms='N:2',
        thermo=(NASA([200.00, 1000.00],
                     [ 3.53101000E+00, -1.23661000E-04, -5.02999000E-07,
                       2.43531000E-09, -1.40881000E-12, -1.04698000E+03,
                       2.96747000E+00]),
                NASA([1000.00, 6000.00],
                     [ 2.95258000E+00,  1.39690000E-03, -4.92632000E-07,
                       7.86010000E-11, -4.60755000E-15, -9.23949000E+02,
                       5.87189000E+00])),
        transport=gas_transport(geom='linear',
                                diam=3.621,
                                well_depth=97.53,
                                polar=1.76,
                                rot_relax=4.0))

species(name=u'C2H4(2)',
        atoms='H:4 C:2',
        thermo=(NASA([100.00, 979.36],
                     [ 3.97471606E+00, -4.75844285E-03,  4.16783770E-05,
                      -4.51392516E-08,  1.54224761E-11,  4.91540746E+03,
                       3.62430844E+00]),
                NASA([979.36, 5000.00],
                     [ 3.55660610E+00,  1.10627464E-02, -4.17019079E-06,
                       7.85586770E-10, -5.70060829E-14,  4.32046489E+03,
                       2.17719479E+00])),
        transport=gas_transport(geom='nonlinear',
                                diam=3.971,
                                well_depth=280.8,
                                rot_relax=1.5))

species(name=u'C4H8-1(3)',
        atoms='H:8 C:4',
        thermo=(NASA([100.00, 1007.28],
                     [ 2.58772906E+00,  2.32777969E-02,  1.93412349E-05,
                      -3.55496333E-08,  1.36906009E-11, -1.91872926E+03,
                       1.45750618E+01]),
                NASA([1007.28, 5000.00],
                     [ 7.20517168E+00,  2.36361568E-02, -9.03150028E-06,
                       1.65392666E-09, -1.16019260E-13, -3.79733937E+03,
                      -1.24426257E+01])),
        transport=gas_transport(geom='nonlinear',
                                diam=5.176,
                                well_depth=357.002,
                                rot_relax=1.0))

species(name=u'C4H8-2(4)',
        atoms='H:8 C:4',
        thermo=(NASA([100.00, 1157.79],
                     [ 2.51998327E+00,  2.76812799E-02,  9.43783469E-07,
                      -1.25009101E-08,  4.67144666E-12, -3.34374767E+03,
                       1.30195623E+01]),
                NASA([1157.79, 5000.00],
                     [ 6.04225708E+00,  2.60072350E-02, -1.04843374E-05,
                       1.90880922E-09, -1.30600505E-13, -4.86276511E+03,
                      -7.52715109E+00])),
        transport=gas_transport(geom='nonlinear',
                                diam=5.289,
                                well_depth=359.053))

species(name=u'C4H6(7)',
        atoms='H:6 C:4',
        thermo=(NASA([100.00, 946.05],
                     [ 2.80599310E+00,  1.02584471E-02,  6.17260255E-05,
                      -9.01642687E-08,  3.59116961E-11,  1.16584972E+04,
                       1.20621434E+01]),
                NASA([946.05, 5000.00],
                     [ 1.24693720E+01,  1.00553901E-02, -2.41206872E-06,
                       4.57077303E-10, -3.93160571E-14,  8.01077795E+03,
                      -4.36374720E+01])),
        transport=gas_transport(geom='nonlinear',
                                diam=5.18,
                                well_depth=357.002,
                                rot_relax=1.0))

species(name=u'C6H8(9)',
        atoms='H:8 C:6',
        thermo=(NASA([100.00, 941.22],
                     [ 1.38427980E+00,  4.14411503E-02,  1.94287417E-05,
                      -6.16688700E-08,  2.86503633E-11,  1.76317461E+04,
                       1.93257509E+01]),
                NASA([941.22, 5000.00],
                     [ 1.69619680E+01,  1.57221707E-02, -4.10118367E-06,
                       6.95736344E-10, -5.26521484E-14,  1.29061672E+04,
                      -6.44097553E+01])),
        transport=gas_transport(geom='nonlinear',
                                diam=5.514,
                                well_depth=396.052))

species(name=u'C3H6(32)',
        atoms='H:6 C:3',
        thermo=(NASA([100.00, 983.75],
                     [ 3.31912102E+00,  8.17958674E-03,  3.34736123E-05,
                      -4.36193684E-08,  1.58213364E-11,  7.49325328E+02,
                       9.54025058E+00]),
                NASA([983.75, 5000.00],
                     [ 5.36755173E+00,  1.70743019E-02, -6.35107626E-06,
                       1.16619529E-09, -8.27620279E-14, -4.87138326E+02,
                      -4.54467529E+00])),
        transport=gas_transport(geom='nonlinear',
                                diam=4.982,
                                well_depth=266.801,
                                rot_relax=1.0))

species(name=u'H2(68)',
        atoms='H:2',
        thermo=(NASA([100.00, 1959.08],
                     [ 3.43536412E+00,  2.12710353E-04, -2.78625043E-07,
                       3.40267167E-10, -7.76031998E-14, -1.03135984E+03,
                      -3.90841732E+00]),
                NASA([1959.08, 5000.00],
                     [ 2.78816583E+00,  5.87640942E-04,  1.59010417E-07,
                      -5.52739026E-11,  4.34310984E-15, -5.96144270E+02,
                       1.12732655E-01])),
        transport=gas_transport(geom='linear',
                                diam=2.833,
                                well_depth=59.7))

species(name=u'C8H10(113)',
        atoms='H:10 C:8',
        thermo=(NASA([100.00, 941.38],
                     [ 8.64508879E-02,  6.59507123E-02,  1.49007776E-06,
                      -6.06862449E-08,  3.13845046E-11,  2.39088929E+04,
                       2.66192822E+01]),
                NASA([941.38, 5000.00],
                     [ 2.28417755E+01,  1.96704891E-02, -5.08803462E-06,
                       8.53682038E-10, -6.42382395E-14,  1.73909786E+04,
                      -9.36509497E+01])),
        transport=gas_transport(geom='nonlinear',
                                diam=6.008,
                                well_depth=441.329))

species(name=u'S(181)',
        atoms='H:16 C:12',
        thermo=(NASA([100.00, 985.43],
                     [-1.88304682E+00,  1.07042194E-01, -2.70554103E-05,
                      -4.30549514E-08,  2.47781880E-11,  4.00783494E+04,
                       4.74620913E+01]),
                NASA([985.43, 5000.00],
                     [ 2.44922294E+01,  5.06805346E-02, -1.84366585E-05,
                       3.32433721E-09, -2.33631810E-13,  3.24185269E+04,
                      -9.18863874E+01])),
        transport=gas_transport(geom='nonlinear',
                                diam=7.393,
                                well_depth=525.848))

species(name=u'C6H10(352)',
        atoms='H:10 C:6',
        thermo=(NASA([100.00, 1020.63],
                     [ 9.97427413E-01,  5.59777045E-02, -2.05880600E-05,
                      -1.17182304E-08,  8.13452041E-12,  6.30749855E+03,
                       2.38941836E+01]),
                NASA([1020.63, 5000.00],
                     [ 1.33828218E+01,  2.83661253E-02, -1.07663110E-05,
                       1.95749020E-09, -1.36589418E-13,  2.68926840E+03,
                      -4.14511818E+01])),
        transport=gas_transport(geom='nonlinear',
                                diam=5.673,
                                well_depth=388.08))

species(name=u'C5H8c(380)',
        atoms='H:8 C:5',
        thermo=(NASA([100.00, 1004.86],
                     [ 1.98273955E+00,  3.49998332E-02,  6.98515281E-06,
                      -3.05031334E-08,  1.32246652E-11,  6.96521034E+03,
                       1.60818191E+01]),
                NASA([1004.86, 5000.00],
                     [ 1.01246420E+01,  2.42323877E-02, -9.24886971E-06,
                       1.70115950E-09, -1.20059732E-13,  4.23624320E+03,
                      -2.86745770E+01])),
        transport=gas_transport(geom='nonlinear',
                                diam=5.354,
                                well_depth=369.973))

species(name=u'C6H10(572)',
        atoms='H:10 C:6',
        thermo=(NASA([100.00, 1020.63],
                     [ 9.97427413E-01,  5.59777045E-02, -2.05880600E-05,
                      -1.17182304E-08,  8.13452041E-12,  6.84996860E+03,
                       2.32490569E+01]),
                NASA([1020.63, 5000.00],
                     [ 1.33828218E+01,  2.83661253E-02, -1.07663110E-05,
                       1.95749020E-09, -1.36589418E-13,  3.23173845E+03,
                      -4.20963085E+01])),
        transport=gas_transport(geom='nonlinear',
                                diam=5.681,
                                well_depth=388.325))

species(name=u'C8H12(623)',
        atoms='H:12 C:8',
        thermo=(NASA([100.00, 966.56],
                     [-1.28183216E-01,  7.35572918E-02, -1.44333618E-05,
                      -3.89698452E-08,  2.17299794E-11,  1.04422483E+04,
                       2.89601759E+01]),
                NASA([966.56, 5000.00],
                     [ 2.02785414E+01,  2.99584765E-02, -1.01704686E-05,
                       1.81720743E-09, -1.29537878E-13,  4.58909334E+03,
                      -7.86679341E+01])),
        transport=gas_transport(geom='nonlinear',
                                diam=6.171,
                                well_depth=433.47))

species(name=u'C8H12(652)',
        atoms='H:12 C:8',
        thermo=(NASA([100.00, 966.56],
                     [-1.28183216E-01,  7.35572918E-02, -1.44333618E-05,
                      -3.89698452E-08,  2.17299794E-11,  1.04422483E+04,
                       2.89601759E+01]),
                NASA([966.56, 5000.00],
                     [ 2.02785414E+01,  2.99584765E-02, -1.01704686E-05,
                       1.81720743E-09, -1.29537878E-13,  4.58909334E+03,
                      -7.86679341E+01])),
        transport=gas_transport(geom='nonlinear',
                                diam=6.171,
                                well_depth=433.47))

species(name=u'C2H6(808)',
        atoms='H:6 C:2',
        thermo=(NASA([100.00, 1012.42],
                     [ 3.72239291E+00,  1.65083841E-03,  3.44175530E-05,
                      -3.76858229E-08,  1.24450657E-11, -1.15575901E+04,
                       4.68247999E+00]),
                NASA([1012.42, 5000.00],
                     [ 2.82848257E+00,  1.73040568E-02, -6.73334245E-06,
                       1.23742024E-09, -8.65676410E-14, -1.19978080E+04,
                       5.93811707E+00])),
        transport=gas_transport(geom='nonlinear',
                                diam=4.302,
                                well_depth=252.3,
                                rot_relax=1.5))

species(name=u'C8H14(826)',
        atoms='H:14 C:8',
        thermo=(NASA([100.00, 1506.76],
                     [ 5.49675181E-02,  8.43985440E-02, -5.64633487E-05,
                       1.98661295E-08, -2.94599969E-12, -7.77393079E+02,
                       2.95663347E+01]),
                NASA([1506.76, 5000.00],
                     [ 1.39949012E+01,  4.73919655E-02, -1.96226018E-05,
                       3.56583689E-09, -2.41458224E-13, -4.97819756E+03,
                      -4.34005510E+01])),
        transport=gas_transport(geom='nonlinear',
                                diam=6.336,
                                well_depth=426.003))

species(name=u'C8H14(827)',
        atoms='H:14 C:8',
        thermo=(NASA([100.00, 1174.15],
                     [-2.48893806E-01,  8.15158554E-02, -4.42339339E-05,
                       6.22964790E-09,  1.71501887E-12, -1.28111735E+03,
                       3.25109091E+01]),
                NASA([1174.15, 5000.00],
                     [ 1.57143058E+01,  4.38569816E-02, -1.74882869E-05,
                       3.17419854E-09, -2.17213293E-13, -6.18251438E+03,
                      -5.19740128E+01])),
        transport=gas_transport(geom='nonlinear',
                                diam=6.328,
                                well_depth=425.761))

species(name=u'C8H14(828)',
        atoms='H:14 C:8',
        thermo=(NASA([100.00, 1014.29],
                     [-3.67121846E-01,  8.14233516E-02, -3.11110886E-05,
                      -1.65487757E-08,  1.19185866E-11, -3.02333684E+03,
                       3.00035003E+01]),
                NASA([1014.29, 5000.00],
                     [ 1.79686767E+01,  3.98264136E-02, -1.50150741E-05,
                       2.72531006E-09, -1.90287561E-13, -8.32275149E+03,
                      -6.65042554E+01])),
        transport=gas_transport(geom='nonlinear',
                                diam=6.328,
                                well_depth=425.761))

species(name=u'CH4(830)',
        atoms='H:4 C:1',
        thermo=(NASA([100.00, 1084.12],
                     [ 4.20541524E+00, -5.35557362E-03,  2.51123265E-05,
                      -2.13762843E-08,  5.97523937E-12, -1.01619433E+04,
                      -9.21279283E-01]),
                NASA([1084.12, 5000.00],
                     [ 9.08265721E-01,  1.14540858E-02, -4.57173828E-06,
                       8.29191671E-10, -5.66314895E-14, -9.71997444E+03,
                       1.39930944E+01])),
        transport=gas_transport(geom='nonlinear',
                                diam=3.746,
                                well_depth=141.4,
                                polar=2.6,
                                rot_relax=13.0))

species(name=u'C5H8g(837)',
        atoms='H:8 C:5',
        thermo=(NASA([100.00, 1049.25],
                     [ 2.01062155E+00,  3.15407187E-02,  2.07789480E-05,
                      -4.44088985E-08,  1.72419112E-11,  7.01383967E+03,
                       1.65768346E+01]),
                NASA([1049.25, 5000.00],
                     [ 1.14809937E+01,  2.45641673E-02, -1.08867259E-05,
                       2.16707025E-09, -1.59145781E-13,  3.42314914E+03,
                      -3.72078866E+01])),
        transport=gas_transport(geom='nonlinear',
                                diam=5.404,
                                well_depth=377.736))

species(name=u'C7H10(842)',
        atoms='H:10 C:7',
        thermo=(NASA([100.00, 960.58],
                     [ 5.40181259E-01,  6.14551349E-02, -1.12030877E-05,
                      -3.44223146E-08,  1.91302393E-11,  1.31395193E+04,
                       2.36489181E+01]),
                NASA([960.58, 5000.00],
                     [ 1.78943603E+01,  2.43013009E-02, -8.01425042E-06,
                       1.41741320E-09, -1.01048701E-13,  8.18561381E+03,
                      -6.78088657E+01])),
        transport=gas_transport(geom='nonlinear',
                                diam=5.856,
                                well_depth=416.37))

species(name=u'C7H12(857)',
        atoms='H:12 C:7',
        thermo=(NASA([100.00, 1016.70],
                     [ 3.01260003E-01,  6.93239326E-02, -2.79061455E-05,
                      -1.19417116E-08,  9.27990587E-12, -3.26068174E+02,
                       2.53851511E+01]),
                NASA([1016.70, 5000.00],
                     [ 1.55703568E+01,  3.41922940E-02, -1.28717489E-05,
                       2.32849221E-09, -1.62040961E-13, -4.71997327E+03,
                      -5.48718412E+01])),
        transport=gas_transport(geom='nonlinear',
                                diam=6.014,
                                well_depth=408.468))

species(name=u'C3H8(858)',
        atoms='H:8 C:3',
        thermo=(NASA([100.00, 989.99],
                     [ 3.06336167E+00,  1.29214561E-02,  3.47032808E-05,
                      -4.70946154E-08,  1.71384141E-11, -1.43905789E+04,
                       1.07835592E+01]),
                NASA([989.99, 5000.00],
                     [ 5.60440043E+00,  2.19528785E-02, -8.22080610E-06,
                       1.50103993E-09, -1.05635358E-13, -1.58394038E+04,
                      -6.22623300E+00])),
        transport=gas_transport(geom='nonlinear',
                                diam=4.982,
                                well_depth=266.801,
                                rot_relax=1.0))

species(name=u'S(874)',
        atoms='H:16 C:10',
        thermo=(NASA([100.00, 996.21],
                     [-1.66222393E+00,  1.05913735E-01, -4.90518701E-05,
                      -1.54471216E-08,  1.45435417E-11,  3.25368421E+03,
                       3.72864712E+01]),
                NASA([996.21, 5000.00],
                     [ 2.37730101E+01,  4.38978636E-02, -1.60708071E-05,
                       2.89916239E-09, -2.03170384E-13, -3.80453052E+03,
                      -9.53173115E+01])),
        transport=gas_transport(geom='nonlinear',
                                diam=6.819,
                                well_depth=469.576))

species(name=u'C4H8(945)',
        atoms='H:8 C:4',
        thermo=(NASA([100.00, 1061.33],
                     [ 2.52504770E+00,  2.64752782E-02,  7.08359238E-06,
                      -2.07731462E-08,  8.00430055E-12, -4.02607130E+03,
                       1.28857274E+01]),
                NASA([1061.33, 5000.00],
                     [ 6.48672669E+00,  2.49943921E-02, -9.83283171E-06,
                       1.79343299E-09, -1.24008235E-13, -5.62452310E+03,
                      -1.00316397E+01])),
        transport=gas_transport(geom='nonlinear',
                                diam=5.238,
                                well_depth=351.146))

species(name=u'S(1642)',
        atoms='H:14 C:9',
        thermo=(NASA([100.00, 994.73],
                     [-9.92774361E-01,  9.38016346E-02, -4.58023701E-05,
                      -1.08977317E-08,  1.19292688E-11,  5.95090696E+03,
                       3.26643004E+01]),
                NASA([994.73, 5000.00],
                     [ 2.13698347E+01,  3.82719243E-02, -1.39321680E-05,
                       2.50344607E-09, -1.75014812E-13, -1.99685295E+02,
                      -8.36575092E+01])),
        transport=gas_transport(geom='nonlinear',
                                diam=6.508,
                                well_depth=453.024))

species(name=u'S(1938)',
        atoms='H:12 C:8',
        thermo=(NASA([100.00, 1086.85],
                     [ 4.16666707E-01,  6.71551541E-02, -2.11380215E-05,
                      -1.29841076E-08,  7.80074417E-12,  1.12931799E+04,
                       2.75110729E+01]),
                NASA([1086.85, 5000.00],
                     [ 1.33702771E+01,  4.16858848E-02, -1.66324643E-05,
                       3.04995240E-09, -2.11355555E-13,  7.16599721E+03,
                      -4.20947236E+01])),
        transport=gas_transport(geom='nonlinear',
                                diam=6.243,
                                well_depth=443.592))

species(name=u'S(2465)',
        atoms='H:16 C:10',
        thermo=(NASA([100.00, 998.54],
                     [-1.49361052E+00,  1.01821732E-01, -4.02286750E-05,
                      -2.25819229E-08,  1.65582874E-11,  3.43615932E+03,
                       3.85799402E+01]),
                NASA([998.54, 5000.00],
                     [ 2.30500803E+01,  4.47787502E-02, -1.65426556E-05,
                       3.00048373E-09, -2.10848170E-13, -3.52315514E+03,
                      -9.00970829E+01])),
        transport=gas_transport(geom='nonlinear',
                                diam=6.865,
                                well_depth=476.647))

species(name=u'S(2697)',
        atoms='H:16 C:10',
        thermo=(NASA([100.00, 996.21],
                     [-1.66222393E+00,  1.05913735E-01, -4.90518701E-05,
                      -1.54471216E-08,  1.45435417E-11,  3.25368421E+03,
                       3.79796184E+01]),
                NASA([996.21, 5000.00],
                     [ 2.37730101E+01,  4.38978636E-02, -1.60708071E-05,
                       2.89916239E-09, -2.03170384E-13, -3.80453052E+03,
                      -9.46241644E+01])),
        transport=gas_transport(geom='nonlinear',
                                diam=6.819,
                                well_depth=469.576))

species(name=u'S(3187)',
        atoms='H:14 C:8',
        thermo=(NASA([100.00, 999.32],
                     [-8.27296041E-02,  7.33926821E-02, -9.70961131E-06,
                      -3.77339221E-08,  1.91784792E-11, -2.27794802E+03,
                       3.16114703E+01]),
                NASA([999.32, 5000.00],
                     [ 1.74908493E+01,  3.99675318E-02, -1.49508424E-05,
                       2.72972667E-09, -1.92366979E-13, -7.63361766E+03,
                      -6.23819175E+01])),
        transport=gas_transport(geom='nonlinear',
                                diam=6.384,
                                well_depth=433.303))

species(name=u'S(3945)',
        atoms='H:20 C:12',
        thermo=(NASA([100.00, 1033.99],
                     [-3.22609723E+00,  1.38597711E-01, -8.46824190E-05,
                       9.15810358E-09,  7.01157467E-12, -3.93357723E+03,
                       4.71074841E+01]),
                NASA([1033.99, 5000.00],
                     [ 2.75375547E+01,  5.73920434E-02, -2.17201206E-05,
                       3.92280005E-09, -2.72026574E-13, -1.23162940E+04,