units(length='cm', time='s', quantity='mol', act_energy='kcal/mol')

ideal_gas(name='gas',
          elements="H D T C Ci O Oi N Ne Ar He Si S Cl X",
          species="""n-heptane   Ar          He          Ne
                     N2          C2H4(2)     C4H8-1(3)   C4H8-2(4)
                     C4H6(7)     C6H8(9)     H2(68)      C8H10(113)
                     S(168)      S(171)      S(181)      S(185)
                     S(244)      S(264)      C7H8(888)   C5H8(1051)
                     S(1434)     S(1592)     S(1595)     S(1670)
                     S(1922)     S(2044)     S(2170)     S(2568)""",
          reactions='gas-*',
          initial_state=state(temperature=300.0, pressure=OneAtm))

ideal_interface(name='surface1',
                elements="H D T C Ci O Oi N Ne Ar He Si S Cl X",
                species="""X(1)        HX(5)       C2H3X(37)   C4H5X(80)
                          C4H5X(81)   C6H7X(132)  C6H7X(133)  C6H7X(134)
                          SX(421)     SX(422)     SX(423)     SX(425)
                          SX(426)     SX(427)     SX(428)     SX(429)
                          SX(430)     SX(431)     SX(432)     SX(433)
                          SX(434)     SX(555)     SX(556)     SX(557)
                          SX(558)     SX(559)     SX(560)     SX(561)
                          SX(562)     SX(563)     SX(564)     SX(565)
                          SX(566)     SX(567)     C8H9X(618)  C8H9X(619)
                          C8H9X(620)  C8H9X(621)  SX(683)     C6H7X(697)
                          SX(823)     SX(827)     SX(831)     SX(836)
                          SX(839)     SX(840)     SX(846)     SX(849)
                          SX(850)     SX(875)     SX(877)     C5H7X(880)
                          SX(1045)    SX(1321)    SX(1329)    SX(1330)
                          SX(1335)    SX(1336)    SX(1337)    SX(1347)
                          SX(1399)""",
                site_density=2.72e-09,
                phases="gas",
          reactions='surface1-*',
                initial_state=state(temperature=300.0, pressure=OneAtm))

#-------------------------------------------------------------------------------
# Element data
#-------------------------------------------------------------------------------

element(symbol=u'X', atomic_mass=195.083)
element(symbol=u'Ci', atomic_mass=13.003)
element(symbol=u'D', atomic_mass=2.014)
element(symbol=u'Oi', atomic_mass=18.0)
element(symbol=u'T', atomic_mass=3.016)
#-------------------------------------------------------------------------------
# Species data
#-------------------------------------------------------------------------------

species(name=u'n-heptane',
        atoms='H:16 C:7',
        thermo=(NASA([100.00, 1262.73],
                     [-2.91681405E-03,  7.69373649E-02, -3.48025563E-05,
                       1.86095180E-09,  2.01573617E-12, -2.57829342E+04,
                       3.00312148E+01]),
                NASA([1262.73, 5000.00],
                     [ 1.38377915E+01,  4.85945016E-02, -1.95474548E-05,
                       3.52837178E-09, -2.39064676E-13, -3.05141556E+04,
                      -4.48642836E+01])))

species(name=u'Ar',
        atoms='Ar:1',
        thermo=(NASA([200.00, 1000.00],
                     [ 2.50000000E+00,  0.00000000E+00,  0.00000000E+00,
                       0.00000000E+00,  0.00000000E+00, -7.45375000E+02,
                       4.37967000E+00]),
                NASA([1000.00, 6000.00],
                     [ 2.50000000E+00,  0.00000000E+00,  0.00000000E+00,
                       0.00000000E+00,  0.00000000E+00, -7.45375000E+02,
                       4.37967000E+00])))

species(name=u'He',
        atoms='He:1',
        thermo=(NASA([200.00, 1000.00],
                     [ 2.50000000E+00,  0.00000000E+00,  0.00000000E+00,
                       0.00000000E+00,  0.00000000E+00, -7.45375000E+02,
                       9.28724000E-01]),
                NASA([1000.00, 6000.00],
                     [ 2.50000000E+00,  0.00000000E+00,  0.00000000E+00,
                       0.00000000E+00,  0.00000000E+00, -7.45375000E+02,
                       9.28724000E-01])))

species(name=u'Ne',
        atoms='Ne:1',
        thermo=(NASA([200.00, 1000.00],
                     [ 2.50000000E+00,  0.00000000E+00,  0.00000000E+00,
                       0.00000000E+00,  0.00000000E+00, -7.45375000E+02,
                       3.35532000E+00]),
                NASA([1000.00, 6000.00],
                     [ 2.50000000E+00,  0.00000000E+00,  0.00000000E+00,
                       0.00000000E+00,  0.00000000E+00, -7.45375000E+02,
                       3.35532000E+00])))

species(name=u'N2',
        atoms='N:2',
        thermo=(NASA([200.00, 1000.00],
                     [ 3.53101000E+00, -1.23661000E-04, -5.02999000E-07,
                       2.43531000E-09, -1.40881000E-12, -1.04698000E+03,
                       2.96747000E+00]),
                NASA([1000.00, 6000.00],
                     [ 2.95258000E+00,  1.39690000E-03, -4.92632000E-07,
                       7.86010000E-11, -4.60755000E-15, -9.23949000E+02,
                       5.87189000E+00])))

species(name=u'C2H4(2)',
        atoms='H:4 C:2',
        thermo=(NASA([100.00, 979.36],
                     [ 3.97471606E+00, -4.75844285E-03,  4.16783770E-05,
                      -4.51392516E-08,  1.54224761E-11,  4.91540746E+03,
                       3.62430844E+00]),
                NASA([979.36, 5000.00],
                     [ 3.55660610E+00,  1.10627464E-02, -4.17019079E-06,
                       7.85586770E-10, -5.70060829E-14,  4.32046489E+03,
                       2.17719479E+00])))

species(name=u'C4H8-1(3)',
        atoms='H:8 C:4',
        thermo=(NASA([100.00, 1007.28],
                     [ 2.58772906E+00,  2.32777969E-02,  1.93412349E-05,
                      -3.55496333E-08,  1.36906009E-11, -1.91872926E+03,
                       1.45750618E+01]),
                NASA([1007.28, 5000.00],
                     [ 7.20517168E+00,  2.36361568E-02, -9.03150028E-06,
                       1.65392666E-09, -1.16019260E-13, -3.79733937E+03,
                      -1.24426257E+01])))

species(name=u'C4H8-2(4)',
        atoms='H:8 C:4',
        thermo=(NASA([100.00, 1157.79],
                     [ 2.51998327E+00,  2.76812799E-02,  9.43783469E-07,
                      -1.25009101E-08,  4.67144666E-12, -3.34374767E+03,
                       1.30195623E+01]),
                NASA([1157.79, 5000.00],
                     [ 6.04225708E+00,  2.60072350E-02, -1.04843374E-05,
                       1.90880922E-09, -1.30600505E-13, -4.86276511E+03,
                      -7.52715109E+00])))

species(name=u'C4H6(7)',
        atoms='H:6 C:4',
        thermo=(NASA([100.00, 946.05],
                     [ 2.80599310E+00,  1.02584471E-02,  6.17260255E-05,
                      -9.01642687E-08,  3.59116961E-11,  1.16584972E+04,
                       1.20621434E+01]),
                NASA([946.05, 5000.00],
                     [ 1.24693720E+01,  1.00553901E-02, -2.41206872E-06,
                       4.57077303E-10, -3.93160571E-14,  8.01077795E+03,
                      -4.36374720E+01])))

species(name=u'C6H8(9)',
        atoms='H:8 C:6',
        thermo=(NASA([100.00, 941.22],
                     [ 1.38427980E+00,  4.14411503E-02,  1.94287417E-05,
                      -6.16688700E-08,  2.86503633E-11,  1.76317461E+04,
                       1.93257509E+01]),
                NASA([941.22, 5000.00],
                     [ 1.69619680E+01,  1.57221707E-02, -4.10118367E-06,
                       6.95736344E-10, -5.26521484E-14,  1.29061672E+04,
                      -6.44097553E+01])))

species(name=u'H2(68)',
        atoms='H:2',
        thermo=(NASA([100.00, 1959.08],
                     [ 3.43536412E+00,  2.12710353E-04, -2.78625043E-07,
                       3.40267167E-10, -7.76031998E-14, -1.03135984E+03,
                      -3.90841732E+00]),
                NASA([1959.08, 5000.00],
                     [ 2.78816583E+00,  5.87640942E-04,  1.59010417E-07,
                      -5.52739026E-11,  4.34310984E-15, -5.96144270E+02,
                       1.12732655E-01])))

species(name=u'C8H10(113)',
        atoms='H:10 C:8',
        thermo=(NASA([100.00, 941.38],
                     [ 8.64508879E-02,  6.59507123E-02,  1.49007776E-06,
                      -6.06862449E-08,  3.13845046E-11,  2.39088929E+04,
                       2.66192822E+01]),
                NASA([941.38, 5000.00],
                     [ 2.28417755E+01,  1.96704891E-02, -5.08803462E-06,
                       8.53682038E-10, -6.42382395E-14,  1.73909786E+04,
                      -9.36509497E+01])))

species(name=u'S(168)',
        atoms='H:14 C:10',
        thermo=(NASA([100.00, 1000.82],
                     [-6.31768052E-02,  6.63327958E-02,  3.52866104E-05,
                      -8.69374671E-08,  3.59821837E-11,  1.49219107E+04,
                       3.14585536E+01]),
                NASA([1000.82, 5000.00],
                     [ 1.83633542E+01,  4.74202731E-02, -1.83998113E-05,
                       3.46693133E-09, -2.49801392E-13,  8.49241227E+03,
                      -7.11484830E+01])))

species(name=u'S(171)',
        atoms='H:14 C:10',
        thermo=(NASA([100.00, 970.10],
                     [-9.78988949E-03,  5.86706729E-02,  7.01434593E-05,
                      -1.32675939E-07,  5.46186119E-11,  1.25292176E+04,
                       3.22617600E+01]),
                NASA([970.10, 5000.00],
                     [ 2.20659649E+01,  4.04480551E-02, -1.42487489E-05,
                       2.67818961E-09, -1.98556600E-13,  4.82039373E+03,
                      -9.12271962E+01])))

species(name=u'S(181)',
        atoms='H:16 C:12',
        thermo=(NASA([100.00, 985.43],
                     [-1.88304682E+00,  1.07042194E-01, -2.70554103E-05,
                      -4.30549514E-08,  2.47781880E-11,  4.00783494E+04,
                       4.74620913E+01]),
                NASA([985.43, 5000.00],
                     [ 2.44922294E+01,  5.06805346E-02, -1.84366585E-05,
                       3.32433721E-09, -2.33631810E-13,  3.24185269E+04,
                      -9.18863874E+01])))

species(name=u'S(185)',
        atoms='H:16 C:12',
        thermo=(NASA([100.00, 992.45],
                     [-1.36726188E+00,  9.09276671E-02,  1.69902518E-05,
                      -8.53947805E-08,  3.84301239E-11,  2.11993195E+04,
                       3.87738109E+01]),
                NASA([992.45, 5000.00],
                     [ 2.42201531E+01,  5.14040751E-02, -1.94056379E-05,
                       3.62910452E-09, -2.61722320E-13,  1.29880616E+04,
                      -1.00257920E+02])))

species(name=u'S(244)',
        atoms='H:16 C:12',
        thermo=(NASA([100.00, 1082.71],
                     [-1.42165646E+00,  1.00366054E-01, -2.86690015E-05,
                      -2.45430021E-08,  1.37134617E-11,  2.67269131E+04,
                       3.45501008E+01]),
                NASA([1082.71, 5000.00],
                     [ 1.94956582E+01,  6.02181764E-02, -2.44875026E-05,
                       4.55572743E-09, -3.18938634E-13,  2.00211421E+04,
                      -7.80762928E+01])))

species(name=u'S(264)',
        atoms='H:16 C:12',
        thermo=(NASA([100.00, 967.86],
                     [-1.32209228E+00,  8.47378361E-02,  4.59787499E-05,
                      -1.23781967E-07,  5.42497769E-11,  2.23199283E+04,
                       3.57020946E+01]),
                NASA([967.86, 5000.00],
                     [ 2.71811605E+01,  4.57697461E-02, -1.58000646E-05,
                       2.92345730E-09, -2.14846023E-13,  1.31102045E+04,
                      -1.19952912E+02])))

species(name=u'C7H8(888)',
        atoms='H:8 C:7',
        thermo=(NASA([100.00, 966.81],
                     [ 1.90138903E+00,  2.67868079E-02,  6.30523366E-05,
                      -9.95224287E-08,  3.94205761E-11,  1.54781489E+04,
                       1.80530900E+01]),
                NASA([966.81, 5000.00],
                     [ 1.41488720E+01,  2.45164605E-02, -8.51969957E-06,
                       1.61189695E-09, -1.20790154E-13,  1.08478608E+04,
                      -5.23192761E+01])))

species(name=u'C5H8(1051)',
        atoms='H:8 C:5',
        thermo=(NASA([100.00, 1049.25],
                     [ 2.01062155E+00,  3.15407187E-02,  2.07789480E-05,
                      -4.44088985E-08,  1.72419112E-11,  7.01383967E+03,
                       1.65768346E+01]),
                NASA([1049.25, 5000.00],
                     [ 1.14809937E+01,  2.45641673E-02, -1.08867259E-05,
                       2.16707025E-09, -1.59145781E-13,  3.42314914E+03,
                      -3.72078866E+01])))

species(name=u'S(1434)',
        atoms='H:12 C:8',
        thermo=(NASA([100.00, 966.56],
                     [-1.28183216E-01,  7.35572918E-02, -1.44333618E-05,
                      -3.89698452E-08,  2.17299794E-11,  1.04422483E+04,
                       2.89601759E+01]),
                NASA([966.56, 5000.00],
                     [ 2.02785414E+01,  2.99584765E-02, -1.01704686E-05,
                       1.81720743E-09, -1.29537878E-13,  4.58909334E+03,
                      -7.86679341E+01])))

species(name=u'S(1592)',
        atoms='H:16 C:12',
        thermo=(NASA([100.00, 911.83],
                     [-1.33567750E+00,  4.62975801E-02,  2.34436127E-04,
                      -3.86184949E-07,  1.66340045E-10,  2.18115000E+04,
                       4.06045305E+01]),
                NASA([911.83, 5000.00],
                     [ 5.29589683E+01, -6.38869939E-03,  1.59664626E-05,
                      -3.35908785E-09,  2.12545105E-13,  4.19870290E+03,
                      -2.58608841E+02])))

species(name=u'S(1595)',
        atoms='H:16 C:12',
        thermo=(NASA([100.00, 911.83],
                     [-1.33567750E+00,  4.62975801E-02,  2.34436127E-04,
                      -3.86184949E-07,  1.66340045E-10,  2.18115000E+04,
                       4.06045305E+01]),
                NASA([911.83, 5000.00],
                     [ 5.29589683E+01, -6.38869939E-03,  1.59664626E-05,
                      -3.35908785E-09,  2.12545105E-13,  4.19870290E+03,
                      -2.58608841E+02])))

species(name=u'S(1670)',
        atoms='H:16 C:12',
        thermo=(NASA([100.00, 1116.84],
                     [-2.83914121E+00,  1.32719140E-01, -1.00112287E-04,
                       3.34525043E-08, -2.86099054E-12,  1.91762850E+04,
                       2.64659394E+01]),
                NASA([1116.84, 5000.00],
                     [ 2.66403282E+01,  4.98849225E-02, -1.94111630E-05,
                       3.51696406E-09, -2.42247815E-13,  1.11728250E+04,
                      -1.25364380E+02])))

species(name=u'S(1922)',
        atoms='H:16 C:12',
        thermo=(NASA([100.00, 1004.10],
                     [-2.44553935E+00,  1.19460113E-01, -5.42113342E-05,
                      -1.98307234E-08,  1.72938269E-11,  1.92327184E+04,
                       2.74324710E+01]),
                NASA([1004.10, 5000.00],
                     [ 2.76168334E+01,  4.73830923E-02, -1.77675099E-05,
                       3.26559277E-09, -2.31661894E-13,  1.07919335E+04,
                      -1.29693334E+02])))

species(name=u'S(2044)',
        atoms='H:16 C:12',
        thermo=(NASA([100.00, 1021.52],
                     [-2.55916555E+00,  1.23979943E-01, -6.98889289E-05,
                      -1.71652057E-09,  1.04672407E-11,  2.00472815E+04,
                       2.60045113E+01]),
                NASA([1021.52, 5000.00],
                     [ 2.69714964E+01,  4.86652111E-02, -1.85023371E-05,
                       3.38660979E-09, -2.38029200E-13,  1.19103907E+04,
                      -1.27389367E+02])))

species(name=u'S(2170)',
        atoms='H:16 C:12',
        thermo=(NASA([100.00, 973.24],
                     [-2.63483510E+00,  1.20227177E-01, -4.37619151E-05,
                      -4.01169398E-08,  2.69301425E-11,  1.73414808E+04,
                       2.60308394E+01]),
                NASA([973.24, 5000.00],
                     [ 3.09677045E+01,  4.16451784E-02, -1.43895481E-05,
                       2.60642050E-09, -1.87344303E-13,  7.98180084E+03,
                      -1.49653222E+02])))

species(name=u'S(2568)',
        atoms='H:14 C:10',
        thermo=(NASA([100.00, 971.20],
                     [-2.04845480E-02,  6.01795959E-02,  6.41085138E-05,
                      -1.25045744E-07,  5.16519091E-11,  1.60426214E+04,
                       2.83952673E+01]),
                NASA([971.20, 5000.00],
                     [ 2.12998282E+01,  4.18249981E-02, -1.48156747E-05,
                       2.76616216E-09, -2.03318196E-13,  8.62572638E+03,
                      -9.07037185E+01])))

species(name=u'X(1)',
        atoms='X:1',
        thermo=(NASA([100.00, 1554.80],
                     [ 7.10139498E-03, -4.25619522E-05,  8.98533016E-08,
                      -7.80193649E-11,  2.32465471E-14, -8.76101712E-01,
                      -3.11211229E-02]),
                NASA([1554.80, 5000.00],
                     [ 1.60299900E-01, -2.52235409E-04,  1.14181275E-07,
                      -1.21471653E-11,  3.85790025E-16, -7.08100885E+01,
                      -9.09527530E-01])))

species(name=u'HX(5)',
        atoms='H:1 X:1',
        thermo=(NASA([100.00, 952.91],
                     [-3.80965452E-01,  5.47228709E-03,  2.60912778E-06,
                      -9.64961980E-09,  4.63946753E-12, -3.62029043E+03,
                       1.01725550E+00]),
                NASA([952.91, 5000.00],
                     [ 2.80339655E+00, -5.41047017E-04,  4.99507978E-07,
                      -7.54963647E-11,  3.06772366E-15, -4.56103985E+03,
                      -1.59436787E+01])))

species(name=u'C2H3X(37)',
        atoms='H:3 C:2 X:1',
        thermo=(NASA([100.00, 928.62],
                     [ 3.83091018E+00, -8.76381562E-03,  6.97956896E-05,
                      -8.67969174E-08,  3.33218121E-11,  6.67726531E+03,
                      -1.81151753E+01]),
                NASA([928.62, 5000.00],
                     [ 8.78054562E+00,  1.92497720E-03,  8.25825014E-07,
                      -1.63749818E-10,  5.71728318E-15,  4.37786219E+03,
                      -4.90588618E+01])))

species(name=u'C4H5X(80)',
        atoms='H:5 C:4 X:1',
        thermo=(NASA([100.00, 936.52],
                     [ 2.68471723E+00,  1.36244496E-02,  5.32591849E-05,
                      -8.32912448E-08,  3.41499374E-11,  8.77049549E+03,
                      -1.06510487E+01]),
                NASA([936.52, 5000.00],
                     [ 1.29012266E+01,  8.96921861E-03, -1.71920076E-06,
                       2.89744517E-10, -2.58686364E-14,  5.14745655E+03,
                      -6.83963397E+01])))

species(name=u'C4H5X(81)',
        atoms='H:5 C:4 X:1',
        thermo=(NASA([100.00, 928.63],
                     [ 2.64232495E+00,  8.31109593E-03,  8.12146261E-05,
                      -1.21398701E-07,  4.98630759E-11,  1.39534043E+04,
                      -1.03932963E+01]),
                NASA([928.63, 5000.00],
                     [ 1.69490474E+01,  2.00818812E-03,  2.03468841E-06,
                      -4.02657023E-10,  1.85400094E-14,  8.91090988E+03,
                      -9.11990785E+01])))

species(name=u'C6H7X(132)',
        atoms='H:7 C:6 X:1',
        thermo=(NASA([100.00, 921.05],
                     [ 1.31110668E+00,  3.98923999E-02,  3.32232523E-05,
                      -8.35252706E-08,  3.86326964E-11,  1.37873915E+04,
                      -3.79723913E+00]),
                NASA([921.05, 5000.00],
                     [ 1.94238968E+01,  1.10879295E-02, -1.06296587E-06,
                       6.28490794E-11, -7.95124353E-15,  8.33608088E+03,
                      -1.01171530E+02])))

species(name=u'C6H7X(133)',
        atoms='H:7 C:6 X:1',
        thermo=(NASA([100.00, 937.50],
                     [ 1.68534221E+00,  3.10727778E-02,  5.20803235E-05,
                      -9.63157959E-08,  4.10725203E-11,  1.03875771E+04,
                      -3.14968750E+00]),
                NASA([937.50, 5000.00],
                     [ 1.71062754E+01,  1.56096156E-02, -3.71084904E-06,
                       6.25093623E-10, -4.95751867E-14,  5.28425302E+03,
                      -8.83483066E+01])))

species(name=u'C6H7X(134)',
        atoms='H:7 C:6 X:1',
        thermo=(NASA([100.00, 928.32],
                     [ 1.31534700E+00,  3.68783497E-02,  4.55986092E-05,
                      -9.88753118E-08,  4.43878511E-11,  1.95750466E+04,
                      -3.00645212E+00]),
                NASA([928.32, 5000.00],
                     [ 2.11711681E+01,  8.22309015E-03, -4.16967724E-08,
                      -7.09091221E-11, -2.30067666E-15,  1.34367677E+04,
                      -1.10527915E+02])))

species(name=u'SX(421)',
        atoms='H:15 C:12 X:1',
        thermo=(NASA([100.00, 998.97],
                     [-8.99471708E-01,  7.61906300E-02,  6.22755405E-05,
                      -1.28403241E-07,  5.19561596E-11,  1.78535900E+04,
                       1.70460900E+01]),
                NASA([998.97, 5000.00],
                     [ 2.29677772E+01,  5.66231660E-02, -2.24612172E-05,
                       4.30391511E-09, -3.14023333E-13,  9.29290663E+03,
                      -1.17055355E+02])))

species(name=u'SX(422)',
        atoms='H:13 C:10 X:1',
        thermo=(NASA([100.00, 963.20],
                     [ 1.49222000E-01,  5.05412094E-02,  9.96729534E-05,
                      -1.67204470E-07,  6.76775619E-11,  1.36587322E+04,
                       9.66344880E+00]),
                NASA([963.20, 5000.00],
                     [ 2.38042891E+01,  3.75053796E-02, -1.27090911E-05,
                       2.41472972E-09, -1.83532638E-13,  5.14963754E+03,
                      -1.24087617E+02])))

species(name=u'SX(423)',
        atoms='H:15 C:12 X:1',
        thermo=(NASA([100.00, 984.86],
                     [-1.25415917E+00,  8.14723399E-02,  5.99670849E-05,
                      -1.35047832E-07,  5.65263335E-11,  1.52651498E+04,
                       1.50885788E+01]),
                NASA([984.86, 5000.00],
                     [ 2.64955777E+01,  5.12028157E-02, -1.94857584E-05,
                       3.72553762E-09, -2.74703249E-13,  5.80132004E+03,
                      -1.38661398E+02])))

species(name=u'SX(425)',
        atoms='H:15 C:12 X:1',
        thermo=(NASA([100.00, 965.88],
                     [-9.39659596E-01,  7.09158013E-02,  8.81192599E-05,
                      -1.68466719E-07,  7.00250527E-11,  2.23907560E+04,
                       1.75963726E+01]),
                NASA([965.88, 5000.00],
                     [ 2.80707644E+01,  4.41051522E-02, -1.51840171E-05,
                       2.87430386E-09, -2.16535671E-13,  1.24331097E+04,
                      -1.43891561E+02])))

species(name=u'SX(426)',
        atoms='H:15 C:12 X:1',
        thermo=(NASA([100.00, 976.31],
                     [-1.37882584E+00,  8.72729725E-02,  3.54645112E-05,
                      -1.10989729E-07,  4.90790319E-11,  2.20255043E+04,
                       1.56116669E+01]),
                NASA([976.31, 5000.00],
                     [ 2.68030035E+01,  4.65647436E-02, -1.68432173E-05,
                       3.15349492E-09, -2.31121478E-13,  1.29599175E+04,
                      -1.37919629E+02])))

species(name=u'SX(427)',
        atoms='H:15 C:12 X:1',
        thermo=(NASA([100.00, 976.31],
                     [-1.37882584E+00,  8.72729725E-02,  3.54645112E-05,
                      -1.10989729E-07,  4.90790319E-11,  2.20255043E+04,
                       1.56116669E+01]),
                NASA([976.31, 5000.00],
                     [ 2.68030035E+01,  4.65647436E-02, -1.68432173E-05,
                       3.15349492E-09, -2.31121478E-13,  1.29599175E+04,
                      -1.37919629E+02])))

species(name=u'SX(428)',
        atoms='H:15 C:12 X:1',
        thermo=(NASA([100.00, 976.31],
                     [-1.37882584E+00,  8.72729725E-02,  3.54645112E-05,
                      -1.10989729E-07,  4.90790319E-11,  2.20255043E+04,
                       1.56116669E+01]),
                NASA([976.31, 5000.00],
                     [ 2.68030035E+01,  4.65647436E-02, -1.68432173E-05,
                       3.15349492E-09, -2.31121478E-13,  1.29599175E+04,
                      -1.37919629E+02])))

species(name=u'SX(429)',
        atoms='H:15 C:12 X:1',
        thermo=(NASA([100.00, 976.31],
                     [-1.37882584E+00,  8.72729725E-02,  3.54645112E-05,
                      -1.10989729E-07,  4.90790319E-11,  2.20255043E+04,
                       1.56116669E+01]),
                NASA([976.31, 5000.00],
                     [ 2.68030035E+01,  4.65647436E-02, -1.68432173E-05,
                       3.15349492E-09, -2.31121478E-13,  1.29599175E+04,
                      -1.37919629E+02])))

species(name=u'SX(430)',
        atoms='H:13 C:10 X:1',
        thermo=(NASA([100.00, 973.92],
                     [-1.15721286E-01,  6.16124415E-02,  6.18073389E-05,
                      -1.24242346E-07,  5.15732895E-11,  1.68644910E+04,
                       8.37236663E+00]),
                NASA([973.92, 5000.00],
                     [ 2.23163901E+01,  4.03455124E-02, -1.45804204E-05,
                       2.75621132E-09, -2.04039546E-13,  9.13424840E+03,
                      -1.16510889E+02])))

species(name=u'SX(431)',
        atoms='H:15 C:12 X:1',
        thermo=(NASA([100.00, 969.93],
                     [-1.42901548E+00,  8.92840294E-02,  3.08945489E-05,
                      -1.06998659E-07,  4.80954617E-11,  1.73544577E+04,
                       1.49144147E+01]),
                NASA([969.93, 5000.00],
                     [ 2.64408716E+01,  4.71691220E-02, -1.65932307E-05,
                       3.04879253E-09, -2.21334610E-13,  8.52276461E+03,
                      -1.36348449E+02])))

species(name=u'SX(432)',
        atoms='H:15 C:12 X:1',
        thermo=(NASA([100.00, 969.93],
                     [-1.42901548E+00,  8.92840294E-02,  3.08945489E-05,
                      -1.06998659E-07,  4.80954617E-11,  1.73544577E+04,
                       1.49144147E+01]),
                NASA([969.93, 5000.00],
                     [ 2.64408716E+01,  4.71691220E-02, -1.65932307E-05,
                       3.04879253E-09, -2.21334610E-13,  8.52276461E+03,
                      -1.36348449E+02])))

species(name=u'SX(433)',
        atoms='H:15 C:12 X:1',
        thermo=(NASA([100.00, 970.34],
                     [-1.41774466E+00,  8.61761971E-02,  4.36551332E-05,
                      -1.22944357E-07,  5.41540457E-11,  2.31418154E+04,
                       1.56806467E+01]),
                NASA([970.34, 5000.00],
                     [ 2.81969666E+01,  4.42913736E-02, -1.55653820E-05,
                       2.91362941E-09, -2.15576821E-13,  1.36190988E+04,
                      -1.45755724E+02])))

species(name=u'SX(434)',
        atoms='H:15 C:12 X:1',
        thermo=(NASA([100.00, 970.34],
                     [-1.41774466E+00,  8.61761971E-02,  4.36551332E-05,
                      -1.22944357E-07,  5.41540457E-11,  2.31418154E+04,
                       1.56806467E+01]),
                NASA([970.34, 5000.00],
                     [ 2.81969666E+01,  4.42913736E-02, -1.55653820E-05,
                       2.91362941E-09, -2.15576821E-13,  1.36190988E+04,
                      -1.45755724E+02])))

species(name=u'SX(555)',
        atoms='H:15 C:12 X:1',
        thermo=(NASA([100.00, 955.42],
                     [-3.77476746E-01,  5.39184300E-02,  1.37549526E-04,
                      -2.19711044E-07,  8.84765334E-11,  2.04150707E+04,
                       1.69442326E+01]),
                NASA([955.42, 5000.00],
                     [ 2.73970405E+01,  4.40433306E-02, -1.40049416E-05,
                       2.60888730E-09, -1.99027511E-13,  1.02512700E+04,
                      -1.41200875E+02])))

species(name=u'SX(556)',
        atoms='H:15 C:12 X:1',
        thermo=(NASA([100.00, 972.19],
                     [-1.17661044E+00,  8.06798521E-02,  5.49669496E-05,
                      -1.31426508E-07,  5.63655657E-11,  3.01743276E+04,
                       1.68156213E+01]),
                NASA([972.19, 5000.00],
                     [ 2.68988151E+01,  4.60463391E-02, -1.63874698E-05,
                       3.07704975E-09, -2.27358752E-13,  2.08931475E+04,
                      -1.37498126E+02])))

species(name=u'SX(557)',
        atoms='H:15 C:12 X:1',
        thermo=(NASA([100.00, 965.89],
                     [-1.00971623E+00,  7.64988302E-02,  6.69829358E-05,
                      -1.43294674E-07,  6.06292750E-11,  2.11777610E+04,
                       1.35283870E+01]),
                NASA([965.89, 5000.00],
                     [ 2.60237808E+01,  4.73683335E-02, -1.64000530E-05,
                       3.03400227E-09, -2.23019581E-13,  1.20921012E+04,
                      -1.35953586E+02])))

species(name=u'SX(558)',
        atoms='H:15 C:12 X:1',
        thermo=(NASA([100.00, 955.56],
                     [-7.54266692E-01,  6.47572775E-02,  1.08170416E-04,
                      -1.91449214E-07,  7.90764244E-11,  2.12402546E+04,
                       1.49971913E+01]),
                NASA([955.56, 5000.00],
                     [ 2.82737270E+01,  4.27834190E-02, -1.35884302E-05,
                       2.51241232E-09, -1.90371440E-13,  1.11483156E+04,
                      -1.47505091E+02])))

species(name=u'SX(559)',
        atoms='H:15 C:12 X:1',
        thermo=(NASA([100.00, 958.33],
                     [-1.34074199E+00,  8.11550088E-02,  6.42667724E-05,
                      -1.49250138E-07,  6.49043836E-11,  2.31464239E+04,
                       1.25660421E+01]),
                NASA([958.33, 5000.00],
                     [ 2.98578974E+01,  4.07751619E-02, -1.31499063E-05,