units(length='cm', time='s', quantity='mol', act_energy='kcal/mol')

ideal_gas(name='gas',
          elements="H D T C Ci O Oi N Ne Ar He Si S Cl X",
          species="""n-heptane   Ar          He          Ne
                     N2          C2H4(2)     C4H8-1(3)   C4H8-2(4)
                     C4H6(48)    C6H8(50)    C3H6(69)    H2(110)
                     C2H6(147)   CH4(150)    C6H10(169)  C8H12(191)
                     C8H14(224)  C4H8(247)   C8H14(255)  C8H14(692)""",
          transport='Mix',
          initial_state=state(temperature=300.0, pressure=OneAtm))

ideal_interface(name='surface1',
                elements="H D T C Ci O Oi N Ne Ar He Si S Cl X",
                species="""X(1)        C2H3X(74)   HX(75)      allylX(76)
                          CH3X(77)    C2H5X(78)   C4H7X(79)   C4H7X(80)
                          C4H7X(81)   C4H7X(82)   C3H5X(83)   C4H7X(84)
                          C4H7X(85)   C4H5X(117)  C4H5X(118)  C6H9X(135)
                          C6H9X(153)  SX(157)     SX(158)     C6H9X(162)
                          SX(167)     SX(168)     C4H7X(211)  SX(216)
                          SX(217)     C3H5X(240)  SX(249)     C4H7X(262)
                          C6H9X(373)  C5H7X(375)  C6H9X(417)  C6H9X(418)
                          C6H9X(419)  SX(452)     SX(453)     SX(454)
                          C6H9X(558)  C6H9X(590)  C6H9X(591)  C6H9X(592)
                          SX(594)     C6H9X(682)  SX(685)     C6H9X(716)
                          C6H9X(717)  SX(719)     C5H7X(924)  SX(1001)
                          SX(1036)    SX(1037)    SX(1082)    SX(1083)
                          SX(1171)    SX(1217)    SX(1344)    SX(1346)
                          SX(1347)    SX(1348)    SX(1349)    SX(1350)
                          SX(1790)    SX(1903)    SX(1955)    SX(1956)
                          SX(1957)    SX(2192)    SX(2193)    SX(2257)
                          SX(2323)    SX(2325)    SX(2506)    SX(2533)
                          SX(2534)    SX(2897)    SX(2898)    SX(2899)
                          SX(2923)    SX(2937)    SX(3316)    SX(3470)
                          SX(3794)    SX(3795)    SX(3796)    SX(3913)
                          SX(3914)    SX(3916)    SX(4333)    SX(4424)
                          SX(4515)    SX(4703)    SX(4704)    SX(4705)
                          SX(4802)    SX(4803)    SX(5191)    SX(5290)
                          SX(5389)    SX(5390)    SX(6364)    SX(6365)
                          SX(6887)    SX(6888)    SX(7002)    SX(7347)
                          SX(7348)    SX(7466)    SX(7698)    SX(7937)
                          SX(7938)    SX(8166)    SX(8290)    SX(8923)
                          SX(9385)    SX(9519)    SX(9921)    SX(9922)
                          SX(10062)   SX(10063)   SX(10205)   SX(10206)
                          SX(10207)   SX(10345)   SX(10346)   SX(10487)
                          SX(10631)   SX(10632)   SX(11191)   SX(11487)
                          SX(11488)   SX(12555)   SX(12556)   SX(12713)
                          SX(12714)   SX(13648)   SX(13649)   SX(14113)
                          SX(14114)   SX(14609)""",
                site_density=2.72e-09,
                phases="gas",
          reactions='all',
                initial_state=state(temperature=300.0, pressure=OneAtm))

#-------------------------------------------------------------------------------
# Element data
#-------------------------------------------------------------------------------

element(symbol=u'X', atomic_mass=195.083)
element(symbol=u'Ci', atomic_mass=13.003)
element(symbol=u'D', atomic_mass=2.014)
element(symbol=u'Oi', atomic_mass=18.0)
element(symbol=u'T', atomic_mass=3.016)
#-------------------------------------------------------------------------------
# Species data
#-------------------------------------------------------------------------------

species(name=u'n-heptane',
        atoms='H:16 C:7',
        thermo=(NASA([100.00, 1262.75],
                     [-2.93512125E-03,  7.69375610E-02, -3.48031525E-05,
                       1.86160506E-09,  2.01550529E-12, -2.57829334E+04,
                       3.00312819E+01]),
                NASA([1262.75, 5000.00],
                     [ 1.38379971E+01,  4.85941816E-02, -1.95472819E-05,
                       3.52833289E-09, -2.39061569E-13, -3.05142526E+04,
                      -4.48654615E+01])),
        transport=gas_transport(geom='nonlinear',
                                diam=6.366,
                                well_depth=402.997))

species(name=u'Ar',
        atoms='Ar:1',
        thermo=(NASA([200.00, 1000.00],
                     [ 2.50000000E+00,  0.00000000E+00,  0.00000000E+00,
                       0.00000000E+00,  0.00000000E+00, -7.45375000E+02,
                       4.37967000E+00]),
                NASA([1000.00, 6000.00],
                     [ 2.50000000E+00,  0.00000000E+00,  0.00000000E+00,
                       0.00000000E+00,  0.00000000E+00, -7.45375000E+02,
                       4.37967000E+00])),
        transport=gas_transport(geom='atom',
                                diam=3.33,
                                well_depth=136.5))

species(name=u'He',
        atoms='He:1',
        thermo=(NASA([200.00, 1000.00],
                     [ 2.50000000E+00,  0.00000000E+00,  0.00000000E+00,
                       0.00000000E+00,  0.00000000E+00, -7.45375000E+02,
                       9.28724000E-01]),
                NASA([1000.00, 6000.00],
                     [ 2.50000000E+00,  0.00000000E+00,  0.00000000E+00,
                       0.00000000E+00,  0.00000000E+00, -7.45375000E+02,
                       9.28724000E-01])),
        transport=gas_transport(geom='atom',
                                diam=2.576,
                                well_depth=10.2))

species(name=u'Ne',
        atoms='Ne:1',
        thermo=(NASA([200.00, 1000.00],
                     [ 2.50000000E+00,  0.00000000E+00,  0.00000000E+00,
                       0.00000000E+00,  0.00000000E+00, -7.45375000E+02,
                       3.35532000E+00]),
                NASA([1000.00, 6000.00],
                     [ 2.50000000E+00,  0.00000000E+00,  0.00000000E+00,
                       0.00000000E+00,  0.00000000E+00, -7.45375000E+02,
                       3.35532000E+00])),
        transport=gas_transport(geom='atom',
                                diam=3.758,
                                well_depth=148.6))

species(name=u'N2',
        atoms='N:2',
        thermo=(NASA([200.00, 1000.00],
                     [ 3.53101000E+00, -1.23661000E-04, -5.02999000E-07,
                       2.43531000E-09, -1.40881000E-12, -1.04698000E+03,
                       2.96747000E+00]),
                NASA([1000.00, 6000.00],
                     [ 2.95258000E+00,  1.39690000E-03, -4.92632000E-07,
                       7.86010000E-11, -4.60755000E-15, -9.23949000E+02,
                       5.87189000E+00])),
        transport=gas_transport(geom='linear',
                                diam=3.621,
                                well_depth=97.53,
                                polar=1.76,
                                rot_relax=4.0))

species(name=u'C2H4(2)',
        atoms='H:4 C:2',
        thermo=(NASA([100.00, 979.37],
                     [ 3.97469045E+00, -4.75813325E-03,  4.16772624E-05,
                      -4.51377676E-08,  1.54218287E-11,  4.91540855E+03,
                       3.62439976E+00]),
                NASA([979.37, 5000.00],
                     [ 3.55670229E+00,  1.10625819E-02, -4.17009559E-06,
                       7.85564219E-10, -5.70042086E-14,  4.32042473E+03,
                       2.17665377E+00])),
        transport=gas_transport(geom='nonlinear',
                                diam=3.971,
                                well_depth=280.8,
                                rot_relax=1.5))

species(name=u'C4H8-1(3)',
        atoms='H:8 C:4',
        thermo=(NASA([100.00, 1007.28],
                     [ 2.58772978E+00,  2.32777883E-02,  1.93412653E-05,
                      -3.55496729E-08,  1.36906178E-11, -1.91872929E+03,
                       1.45750592E+01]),
                NASA([1007.28, 5000.00],
                     [ 7.20516863E+00,  2.36361619E-02, -9.03150325E-06,
                       1.65392736E-09, -1.16019318E-13, -3.79733809E+03,
                      -1.24426086E+01])),
        transport=gas_transport(geom='nonlinear',
                                diam=5.176,
                                well_depth=357.002,
                                rot_relax=1.0))

species(name=u'C4H8-2(4)',
        atoms='H:8 C:4',
        thermo=(NASA([100.00, 1157.78],
                     [ 2.51999305E+00,  2.76811707E-02,  9.44135366E-07,
                      -1.25013222E-08,  4.67160311E-12, -3.34374810E+03,
                       1.30195268E+01]),
                NASA([1157.78, 5000.00],
                     [ 6.04218222E+00,  2.60073554E-02, -1.04844041E-05,
                       1.90882450E-09, -1.30601743E-13, -4.86273126E+03,
                      -7.52672501E+00])),
        transport=gas_transport(geom='nonlinear',
                                diam=5.289,
                                well_depth=359.053))

species(name=u'C4H6(48)',
        atoms='H:6 C:4',
        thermo=(NASA([100.00, 946.05],
                     [ 2.80594317E+00,  1.02590609E-02,  6.17237648E-05,
                      -9.01611778E-08,  3.59103084E-11,  1.16584993E+04,
                       1.20623208E+01]),
                NASA([946.05, 5000.00],
                     [ 1.24695345E+01,  1.00551088E-02, -2.41190446E-06,
                       4.57038145E-10, -3.93127871E-14,  8.01071120E+03,
                      -4.36383840E+01])),
        transport=gas_transport(geom='nonlinear',
                                diam=5.18,
                                well_depth=357.002,
                                rot_relax=1.0))

species(name=u'C6H8(50)',
        atoms='H:8 C:6',
        thermo=(NASA([100.00, 941.22],
                     [ 1.38427839E+00,  4.14411676E-02,  1.94286778E-05,
                      -6.16687823E-08,  2.86503237E-11,  1.76317462E+04,
                       1.93257559E+01]),
                NASA([941.22, 5000.00],
                     [ 1.69619725E+01,  1.57221629E-02, -4.10117912E-06,
                       6.95735258E-10, -5.26520576E-14,  1.29061653E+04,
                      -6.44097805E+01])),
        transport=gas_transport(geom='nonlinear',
                                diam=5.514,
                                well_depth=396.052))

species(name=u'C3H6(69)',
        atoms='H:6 C:3',
        thermo=(NASA([100.00, 983.75],
                     [ 3.31912202E+00,  8.17957465E-03,  3.34736557E-05,
                      -4.36194260E-08,  1.58213614E-11,  7.49325285E+02,
                       9.54024700E+00]),
                NASA([983.75, 5000.00],
                     [ 5.36754789E+00,  1.70743084E-02, -6.35108004E-06,
                       1.16619619E-09, -8.27621023E-14, -4.87136723E+02,
                      -4.54465373E+00])),
        transport=gas_transport(geom='nonlinear',
                                diam=4.982,
                                well_depth=266.801,
                                rot_relax=1.0))

species(name=u'H2(110)',
        atoms='H:2',
        thermo=(NASA([100.00, 1959.08],
                     [ 3.43536411E+00,  2.12710383E-04, -2.78625110E-07,
                       3.40267219E-10, -7.76032129E-14, -1.03135984E+03,
                      -3.90841731E+00]),
                NASA([1959.08, 5000.00],
                     [ 2.78816619E+00,  5.87640475E-04,  1.59010635E-07,
                      -5.52739465E-11,  4.34311304E-15, -5.96144481E+02,
                       1.12730527E-01])),
        transport=gas_transport(geom='linear',
                                diam=2.833,
                                well_depth=59.7))

species(name=u'C2H6(147)',
        atoms='H:6 C:2',
        thermo=(NASA([100.00, 1012.42],
                     [ 3.72239308E+00,  1.65083640E-03,  3.44175601E-05,
                      -3.76858321E-08,  1.24450696E-11, -1.15575902E+04,
                       4.68247939E+00]),
                NASA([1012.42, 5000.00],
                     [ 2.82848184E+00,  1.73040581E-02, -6.73334315E-06,
                       1.23742041E-09, -8.65676548E-14, -1.19978077E+04,
                       5.93812118E+00])),
        transport=gas_transport(geom='nonlinear',
                                diam=4.302,
                                well_depth=252.3,
                                rot_relax=1.5))

species(name=u'CH4(150)',
        atoms='H:4 C:1',
        thermo=(NASA([100.00, 1084.15],
                     [ 4.20540072E+00, -5.35540640E-03,  2.51117636E-05,
                      -2.13755910E-08,  5.97496145E-12, -1.01619427E+04,
                      -9.21226951E-01]),
                NASA([1084.15, 5000.00],
                     [ 9.08349401E-01,  1.14539479E-02, -4.57166053E-06,
                       8.29173612E-10, -5.66300105E-14, -9.72001110E+03,
                       1.39926204E+01])),
        transport=gas_transport(geom='nonlinear',
                                diam=3.746,
                                well_depth=141.4,
                                polar=2.6,
                                rot_relax=13.0))

species(name=u'C6H10(169)',
        atoms='H:10 C:6',
        thermo=(NASA([100.00, 1020.64],
                     [ 9.97407792E-01,  5.59779371E-02, -2.05888747E-05,
                      -1.17171796E-08,  8.13407747E-12,  6.30749940E+03,
                       2.38942539E+01]),
                NASA([1020.64, 5000.00],
                     [ 1.33829093E+01,  2.83659778E-02, -1.07662265E-05,
                       1.95747034E-09, -1.36587777E-13,  2.68923113E+03,
                      -4.14516757E+01])),
        transport=gas_transport(geom='nonlinear',
                                diam=5.673,
                                well_depth=388.08))

species(name=u'C8H12(191)',
        atoms='H:12 C:8',
        thermo=(NASA([100.00, 1002.94],
                     [ 1.69470520E-02,  7.28189610E-02, -2.16586522E-05,
                      -2.40806705E-08,  1.44596580E-11,  1.38562448E+04,
                       3.07679147E+01]),
                NASA([1002.94, 5000.00],
                     [ 1.77276964E+01,  3.45993664E-02, -1.29781749E-05,
                       2.37499951E-09, -1.67643382E-13,  8.67334297E+03,
                      -6.28559833E+01])),
        transport=gas_transport(geom='nonlinear',
                                diam=6.098,
                                well_depth=423.433))

species(name=u'C8H14(224)',
        atoms='H:14 C:8',
        thermo=(NASA([100.00, 1014.29],
                     [-3.67121776E-01,  8.14233507E-02, -3.11110856E-05,
                      -1.65487795E-08,  1.19185882E-11, -3.02333685E+03,
                       3.00035000E+01]),
                NASA([1014.29, 5000.00],
                     [ 1.79686764E+01,  3.98264141E-02, -1.50150744E-05,
                       2.72531013E-09, -1.90287566E-13, -8.32275136E+03,
                      -6.65042537E+01])),
        transport=gas_transport(geom='nonlinear',
                                diam=6.328,
                                well_depth=425.761))

species(name=u'C4H8(247)',
        atoms='H:8 C:4',
        thermo=(NASA([100.00, 1061.32],
                     [ 2.52506524E+00,  2.64750742E-02,  7.08428866E-06,
                      -2.07740178E-08,  8.00465619E-12, -4.02607206E+03,
                       1.28856643E+01]),
                NASA([1061.32, 5000.00],
                     [ 6.48663440E+00,  2.49945454E-02, -9.83291861E-06,
                       1.79345326E-09, -1.24009900E-13, -5.62448308E+03,
                      -1.00311177E+01])),
        transport=gas_transport(geom='nonlinear',
                                diam=5.238,
                                well_depth=351.146))

species(name=u'C8H14(255)',
        atoms='H:14 C:8',
        thermo=(NASA([100.00, 1174.15],
                     [-2.48893731E-01,  8.15158546E-02, -4.42339313E-05,
                       6.22964485E-09,  1.71502001E-12, -1.28111735E+03,
                       3.25109088E+01]),
                NASA([1174.15, 5000.00],
                     [ 1.57143052E+01,  4.38569825E-02, -1.74882874E-05,
                       3.17419866E-09, -2.17213302E-13, -6.18251410E+03,
                      -5.19740094E+01])),
        transport=gas_transport(geom='nonlinear',
                                diam=6.328,
                                well_depth=425.761))

species(name=u'C8H14(692)',
        atoms='H:14 C:8',
        thermo=(NASA([100.00, 1506.75],
                     [ 5.49655908E-02,  8.43985607E-02, -5.64633863E-05,
                       1.98661591E-08, -2.94600717E-12, -7.77392970E+02,
                       2.95663422E+01]),
                NASA([1506.75, 5000.00],
                     [ 1.39948712E+01,  4.73920143E-02, -1.96226291E-05,
                       3.56584317E-09, -2.41458736E-13, -4.97818417E+03,
                      -4.34003806E+01])),
        transport=gas_transport(geom='nonlinear',
                                diam=6.336,
                                well_depth=426.003))

species(name=u'X(1)',
        atoms='X:1',
        thermo=(NASA([100.00, 1554.81],
                     [ 7.10134880E-03, -4.25615041E-05,  8.98521156E-08,
                      -7.80182565E-11,  2.32462166E-14, -8.76099414E-01,
                      -3.11209498E-02]),
                NASA([1554.81, 5000.00],
                     [ 1.60301287E-01, -2.52237396E-04,  1.14182282E-07,
                      -1.21473809E-11,  3.85806589E-16, -7.08108147E+01,
                      -9.09535600E-01])))

species(name=u'C2H3X(74)',
        atoms='H:3 C:2 X:1',
        thermo=(NASA([100.00, 928.60],
                     [ 3.83104022E+00, -8.76542826E-03,  6.98017027E-05,
                      -8.68052566E-08,  3.33256145E-11,  8.75006646E+02,
                      -1.81156365E+01]),
                NASA([928.60, 5000.00],
                     [ 8.78015372E+00,  1.92565992E-03,  8.25424482E-07,
                      -1.63654020E-10,  5.70926320E-15, -1.42423138E+03,
                      -4.90566656E+01])))

species(name=u'HX(75)',
        atoms='H:1 X:1',
        thermo=(NASA([100.00, 952.91],
                     [-3.80957846E-01,  5.47219393E-03,  2.60946928E-06,
                      -9.65008412E-09,  4.63967474E-12,  2.18196238E+03,
                       1.01722845E+00]),
                NASA([952.91, 5000.00],
                     [ 2.80337105E+00, -5.41002993E-04,  4.99482316E-07,
                      -7.54902555E-11,  3.06721398E-15,  1.24122379E+03,
                      -1.59435356E+01])))

species(name=u'allylX(76)',
        atoms='H:5 C:3 X:1',
        thermo=(NASA([100.00, 937.35],
                     [ 3.44141096E+00, -3.47613301E-03,  8.25901551E-05,
                      -1.05552399E-07,  4.04425050E-11, -2.66682296E+03,
                      -6.88821738E+00]),
                NASA([937.35, 5000.00],
                     [ 9.98170901E+00,  8.92230554E-03, -1.75420228E-06,
                       3.12232383E-10, -2.84111933E-14, -5.66371356E+03,
                      -4.74639238E+01])))

species(name=u'CH3X(77)',
        atoms='H:3 C:1 X:1',
        thermo=(NASA([100.00, 848.30],
                     [-1.21090611E+00,  2.92390831E-02, -4.49011672E-05,
                       3.86010689E-08, -1.30361474E-11, -6.84550441E+03,
                       6.80940157E+00]),
                NASA([848.30, 5000.00],
                     [ 1.62291116E+00,  1.12987225E-02, -5.08316650E-06,
                       9.46832954E-10, -6.42885005E-14, -7.16157030E+03,
                      -5.42502394E+00])))

species(name=u'C2H5X(78)',
        atoms='H:5 C:2 X:1',
        thermo=(NASA([100.00, 803.89],
                     [-1.64624290E+00,  3.89625197E-02, -4.31124593E-05,
                       2.97071589E-08, -8.80200440E-12, -1.08291800E+04,
                       9.27319544E+00]),
                NASA([803.89, 5000.00],
                     [ 1.97599860E+00,  2.09382411E-02, -9.47914613E-06,
                       1.81392354E-09, -1.27205831E-13, -1.14115337E+04,
                      -7.41117371E+00])))

species(name=u'C4H7X(79)',
        atoms='H:7 C:4 X:1',
        thermo=(NASA([100.00, 971.02],
                     [ 2.64368251E+00,  1.79003685E-02,  4.24457324E-05,
                      -6.44047422E-08,  2.49602315E-11, -6.62353676E+03,
                      -6.70003109E+00]),
                NASA([971.02, 5000.00],
                     [ 9.25860008E+00,  2.04066151E-02, -7.39155270E-06,
                       1.37023983E-09, -9.94156257E-14, -9.31097103E+03,
                      -4.56419548E+01])))

species(name=u'C4H7X(80)',
        atoms='H:7 C:4 X:1',
        thermo=(NASA([100.00, 986.68],
                     [ 2.45797290E+00,  2.47218439E-02,  2.01282012E-05,
                      -4.02730332E-08,  1.62483577E-11,  1.77865206E+03,
                      -5.12988514E+00]),
                NASA([986.68, 5000.00],
                     [ 8.87901611E+00,  2.09043388E-02, -7.83847728E-06,
                       1.44075651E-09, -1.02346191E-13, -5.69719300E+02,
                      -4.15009568E+01])))

species(name=u'C4H7X(81)',
        atoms='H:7 C:4 X:1',
        thermo=(NASA([100.00, 965.04],
                     [ 2.56885679E+00,  1.97490862E-02,  3.72996972E-05,
                      -6.04065123E-08,  2.40010228E-11, -6.89495969E+03,
                      -8.56593019E+00]),
                NASA([965.04, 5000.00],
                     [ 9.89750247E+00,  1.86147853E-02, -6.38912892E-06,
                       1.17316108E-09, -8.55462900E-14, -9.67112939E+03,
                      -5.07166347E+01])))

species(name=u'C4H7X(82)',
        atoms='H:7 C:4 X:1',
        thermo=(NASA([100.00, 949.34],
                     [ 2.54262411E+00,  1.77379351E-02,  4.93913107E-05,
                      -7.72926578E-08,  3.10681685E-11, -5.66932630E+03,
                      -8.46811948E+00]),
                NASA([949.34, 5000.00],
                     [ 1.15217625E+01,  1.60010436E-02, -4.89849803E-06,
                       8.84035360E-10, -6.63762686E-14, -9.00074838E+03,
                      -5.98873444E+01])))

species(name=u'C3H5X(83)',
        atoms='H:5 C:3 X:1',
        thermo=(NASA([100.00, 939.07],
                     [ 3.23681525E+00,  3.73154944E-03,  6.01020526E-05,
                      -8.16234054E-08,  3.18530809E-11, -2.93822863E+03,
                      -1.35294815E+01]),
                NASA([939.07, 5000.00],
                     [ 9.70188975E+00,  9.48299599E-03, -2.25947885E-06,
                       3.98417297E-10, -3.27107153E-14, -5.62028204E+03,
                      -5.21286116E+01])))

species(name=u'C4H7X(84)',
        atoms='H:7 C:4 X:1',
        thermo=(NASA([100.00, 963.12],
                     [ 2.84105734E+00,  1.13891249E-02,  6.15521374E-05,
                      -8.44896112E-08,  3.21387448E-11, -6.86271622E+03,
                      -1.87445310E+00]),
                NASA([963.12, 5000.00],
                     [ 9.41772668E+00,  1.97006233E-02, -6.87728119E-06,
                       1.28330586E-09, -9.49080777E-14, -9.78184552E+03,
                      -4.19338421E+01])))

species(name=u'C4H7X(85)',
        atoms='H:7 C:4 X:1',
        thermo=(NASA([100.00, 984.26],
                     [ 2.62897053E+00,  1.98265819E-02,  3.32359789E-05,
                      -5.27981164E-08,  2.03675811E-11, -8.43159732E+03,
                      -9.11747238E+00]),
                NASA([984.26, 5000.00],
                     [ 8.50209518E+00,  2.14493865E-02, -8.08476653E-06,
                       1.50191195E-09, -1.07734856E-13, -1.08224868E+04,
                      -4.36311929E+01])))

species(name=u'C4H5X(117)',
        atoms='H:5 C:4 X:1',
        thermo=(NASA([100.00, 936.52],
                     [ 2.68471814E+00,  1.36244384E-02,  5.32592262E-05,
                      -8.32913017E-08,  3.41499632E-11,  2.96824233E+03,
                      -1.06510519E+01]),
                NASA([936.52, 5000.00],
                     [ 1.29012238E+01,  8.96922349E-03, -1.71920361E-06,
                       2.89745198E-10, -2.58686934E-14, -6.54795429E+02,
                      -6.83963240E+01])))

species(name=u'C4H5X(118)',
        atoms='H:5 C:4 X:1',
        thermo=(NASA([100.00, 928.62],
                     [ 2.64239936E+00,  8.31017311E-03,  8.12180670E-05,
                      -1.21403473E-07,  4.98652517E-11,  8.15114795E+03,
                      -1.03935602E+01]),
                NASA([928.62, 5000.00],
                     [ 1.69488231E+01,  2.00857887E-03,  2.03445917E-06,
                      -4.02602194E-10,  1.85354193E-14,  3.10874807E+03,
                      -9.11978215E+01])))

species(name=u'C6H9X(135)',
        atoms='H:9 C:6 X:1',
        thermo=(NASA([100.00, 959.60],
                     [ 9.97331794E-01,  5.45666106E-02, -1.20055408E-05,
                      -2.57207249E-08,  1.47247298E-11,  1.01755103E+04,
                       4.10399517E+00]),
                NASA([959.60, 5000.00],
                     [ 1.47073062E+01,  2.48051643E-02, -8.29412710E-06,
                       1.44241037E-09, -1.00347533E-13,  6.28333273E+03,
                      -6.80435427E+01])))

species(name=u'C6H9X(153)',
        atoms='H:9 C:6 X:1',
        thermo=(NASA([100.00, 1020.19],
                     [ 1.54908995E+00,  4.00613507E-02,  2.02860097E-05,
                      -5.00985471E-08,  2.03555152E-11,  1.00634608E+04,
                       4.81062025E+00]),
                NASA([1020.19, 5000.00],
                     [ 1.26206039E+01,  2.92926542E-02, -1.18732774E-05,
                       2.27874699E-09, -1.65054566E-13,  6.10584661E+03,
                      -5.71493055E+01])))

species(name=u'SX(157)',
        atoms='H:11 C:8 X:1',
        thermo=(NASA([100.00, 972.95],
                     [ 2.21489032E-01,  6.31111443E-02,  1.32724260E-05,
                      -6.52466858E-08,  3.01549237E-11,  9.60176177E+03,
                       1.01868224E+01]),
                NASA([972.95, 5000.00],
                     [ 1.97220994E+01,  3.08925124E-02, -1.09842031E-05,
                       2.02953264E-09, -1.47662864E-13,  3.53746617E+03,
                      -9.50214419E+01])))

species(name=u'SX(158)',
        atoms='H:11 C:8 X:1',
        thermo=(NASA([100.00, 983.02],
                     [-3.67817743E-02,  7.59663529E-02, -3.27274188E-05,
                      -1.32879699E-08,  1.12380469E-11,  1.63444488E+04,
                       1.03948572E+01]),
                NASA([983.02, 5000.00],
                     [ 1.71800186E+01,  3.42412144E-02, -1.22903429E-05,
                       2.17110463E-09, -1.49909899E-13,  1.15906812E+04,
                      -7.93340220E+01])))

species(name=u'C6H9X(162)',
        atoms='H:9 C:6 X:1',
        thermo=(NASA([100.00, 995.65],
                     [ 1.00156767E+00,  5.37833423E-02, -1.05083627E-05,
                      -2.52890803E-08,  1.36191022E-11,  9.65301843E+03,
                       4.73933245E+00]),
                NASA([995.65, 5000.00],
                     [ 1.48280231E+01,  2.56880474E-02, -9.53960436E-06,
                       1.75503504E-09, -1.24934189E-13,  5.53906948E+03,
                      -6.87382183E+01])))

species(name=u'SX(167)',
        atoms='H:11 C:8 X:1',
        thermo=(NASA([100.00, 970.37],
                     [ 5.31888753E-02,  6.71974460E-02,  4.47967233E-06,
                      -5.81686632E-08,  2.81729684E-11,  9.41927446E+03,
                       9.58549953E+00]),
                NASA([970.37, 5000.00],
                     [ 2.04532044E+01,  2.99984680E-02, -1.05050701E-05,
                       1.92654254E-09, -1.39849888E-13,  3.25241453E+03,
                      -9.95950068E+01])))

species(name=u'SX(168)',
        atoms='H:11 C:8 X:1',
        thermo=(NASA([100.00, 978.48],
                     [-2.03188329E-01,  8.00305306E-02, -4.14445305E-05,
                      -6.30400942E-09,  9.29379931E-12,  1.61618800E+04,
                       9.78673596E+00]),
                NASA([978.48, 5000.00],
                     [ 1.79003685E+01,  3.33652588E-02, -1.18215599E-05,
                       2.07054535E-09, -1.42297671E-13,  1.13102148E+04,
                      -8.38469130E+01])))

species(name=u'C4H7X(211)',
        atoms='H:7 C:4 X:1',
        thermo=(NASA([100.00, 947.75],
                     [ 2.86443068E+00,  8.12921682E-03,  7.59618652E-05,
                      -1.03619921E-07,  4.00701955E-11, -6.60469302E+03,
                      -2.40048015E+00]),
                NASA([947.75, 5000.00],
                     [ 1.10488776E+01,  1.63915684E-02, -4.86289756E-06,
                       8.89653791E-10, -6.85145842E-14, -1.00784719E+04,
                      -5.15885474E+01])))

species(name=u'SX(216)',
        atoms='H:13 C:8 X:1',
        thermo=(NASA([100.00, 1010.72],
                     [-4.20440771E-03,  7.08154759E-02, -2.81424939E-06,
                      -4.36279091E-08,  2.07014927E-11, -4.04051628E+03,
                       1.20321554E+01]),
                NASA([1010.72, 5000.00],
                     [ 1.73721588E+01,  4.08295272E-02, -1.58690233E-05,
                       2.94719923E-09, -2.09209787E-13, -9.53395058E+03,
                      -8.17835345E+01])))

species(name=u'SX(217)',
        atoms='H:13 C:8 X:1',
        thermo=(NASA([100.00, 1123.22],
                     [-3.58421844E-01,  8.47386102E-02, -5.22140414E-05,
                       1.21917625E-08,  4.00886587E-13,  2.70637479E+03,
                       1.25881995E+01]),
                NASA([1123.22, 5000.00],
                     [ 1.56415625E+01,  4.28520504E-02, -1.64320811E-05,