units(length='cm', time='s', quantity='mol', act_energy='kcal/mol')

ideal_gas(name='gas',
          elements="H D T C Ci O Oi N Ne Ar He Si S Cl X",
          species="""n-heptane   Ar          He          Ne
                     N2          C2H4(2)     C4H8-1(3)   C4H8-2(4)
                     C4H6(7)     C3H6(32)    H2(68)      C8H12(133)
                     C6H10(158)  C8H14(165)  C4H8(187)   CH4(413)
                     C5H10(416)  C5H10(418)  C5H10(419)  C2H6(428)
                     C6H12(433)  C6H12(434)  C8H14(440)  C3H8(444)
                     C4H10(445)  C5H10(469)  C8H14(672)  C8H14(984)
                     S(1070)     S(1653)     S(1717)     S(2775)
                     S(2816)     S(2817)     S(3025)     S(3583)
                     S(3638)     S(3714)     S(4119)     S(4539)
                     S(5556)     S(5865)     S(5869)     S(5909)
                     S(5914)     S(5962)     S(5992)     S(6711)
                     S(6712)     S(6818)     S(6952)     S(6963)
                     S(7078)     S(7084)     S(7713)     S(7714)""",
          reactions='gas-*',
          initial_state=state(temperature=300.0, pressure=OneAtm))

ideal_interface(name='surface1',
                elements="H D T C Ci O Oi N Ne Ar He Si S Cl X",
                species="""X(1)        HX(5)       C2H3X(37)   allylX(38)
                          CH3X(39)    C2H5X(40)   C4H7X(41)   C4H7X(42)
                          C4H7X(43)   C4H7X(44)   C3H5X(45)   C4H7X(46)
                          C4H7X(47)   C4H9X(64)   C4H9X(65)   C6H11X(71)
                          C6H11X(72)  C6H11X(73)  C4H5X(80)   C4H5X(81)
                          C6H9X(98)   C6H9X(117)  SX(119)     SX(120)
                          C6H9X(126)  SX(131)     SX(132)     SX(140)
                          C4H7X(153)  SX(154)     SX(159)     SX(160)
                          C3H5X(181)  SX(183)     C4H7X(202)  C4H9X(217)
                          C4H9X(218)  SX(219)     SX(220)     SX(231)
                          C6H9X(247)  C5H7X(249)  C6H9X(287)  C6H9X(288)
                          C6H9X(289)  SX(322)     SX(323)     SX(324)
                          SX(325)     SX(326)     C3H7X(409)  SX(410)
                          SX(411)     SX(412)     C5H9X(414)  C5H9X(415)
                          SX(421)     SX(422)     SX(429)     SX(430)
                          SX(431)     SX(432)     SX(438)     SX(439)
                          C6H9X(524)  C6H9X(556)  C6H9X(557)  C6H9X(558)
                          C6H9X(648)  SX(651)     C6H9X(682)  C6H9X(683)
                          C5H9X(742)  C5H9X(771)  SX(801)     SX(803)
                          SX(804)     SX(814)     SX(833)     C3H7X(882)
                          C5H9X(883)  SX(926)     SX(945)     SX(946)
                          C6H9X(959)  C6H9X(960)  SX(964)     SX(965)
                          SX(977)     SX(1004)    SX(1005)    SX(1007)
                          SX(1009)    SX(1010)    SX(1021)    SX(1050)
                          SX(1091)    SX(1093)    SX(1136)    SX(1219)
                          SX(1267)    SX(1306)    SX(1338)    SX(1339)
                          SX(1350)    SX(1436)    SX(1438)    SX(1477)
                          SX(1549)    SX(1578)    SX(1579)    SX(1580)
                          SX(1633)    SX(1637)    SX(1665)    SX(1667)
                          SX(1696)    SX(1746)    SX(1805)    SX(1806)
                          SX(1807)    SX(1808)    SX(1810)    SX(1945)
                          SX(1975)    SX(1976)    SX(2033)    SX(2065)
                          SX(2066)    SX(2067)    SX(2101)    SX(2102)
                          SX(2219)    SX(2221)    SX(2249)    SX(2275)
                          SX(2276)    SX(2361)    SX(2412)    SX(2413)
                          SX(2442)    SX(2443)    SX(2445)    SX(2446)
                          SX(2447)    SX(2494)    SX(2521)    SX(2629)
                          SX(2630)    SX(2645)    SX(2691)    SX(3066)
                          SX(3124)    SX(3303)    SX(3304)    SX(3305)
                          SX(3306)    SX(3307)    SX(3308)    SX(3533)
                          SX(3564)    SX(3565)    SX(3594)    SX(3621)
                          SX(3672)    SX(3698)    SX(4099)    SX(4100)
                          SX(4103)    SX(4213)    SX(4291)    SX(4320)
                          SX(4447)    SX(4497)    SX(4503)    SX(4534)
                          SX(4536)    SX(4730)    SX(4731)    SX(4799)
                          SX(4800)    SX(4931)    SX(5395)    SX(5436)
                          SX(5438)    SX(5439)    SX(5440)    SX(5468)
                          SX(5509)    SX(5511)    SX(5551)    SX(5553)
                          SX(5692)    SX(5696)    SX(5697)    SX(5698)
                          SX(5742)    SX(5743)    SX(5753)    SX(5754)
                          SX(5755)    SX(5762)    SX(5763)    SX(5803)
                          SX(5843)    SX(5873)    SX(5964)    SX(5969)
                          SX(5974)    SX(5975)    SX(5976)    SX(5977)
                          SX(5989)    SX(5994)    SX(6001)    SX(6009)
                          SX(6010)    SX(6011)    SX(6012)    SX(6024)
                          SX(6035)    SX(6049)    SX(6078)    SX(6096)
                          SX(6249)    SX(6266)    SX(6273)    SX(6285)
                          SX(6286)    SX(6287)    SX(6288)    SX(6357)
                          SX(6358)    SX(6380)    SX(6384)    SX(6410)
                          SX(6412)    SX(6441)    SX(6442)    SX(6471)
                          SX(6590)    SX(6694)    SX(6824)    SX(6945)
                          SX(6973)    SX(6974)    SX(7087)    SX(7233)
                          SX(7459)    SX(7461)    SX(7464)    SX(7869)
                          SX(7870)    SX(7871)    SX(8118)    SX(8286)
                          SX(9392)    SX(9456)    SX(9480)    SX(9481)
                          SX(9482)    SX(9602)    SX(9666)    SX(11387)""",
                site_density=2.72e-09,
                phases="gas",
          reactions='surface1-*',
                initial_state=state(temperature=300.0, pressure=OneAtm))

#-------------------------------------------------------------------------------
# Element data
#-------------------------------------------------------------------------------

element(symbol=u'X', atomic_mass=195.083)
element(symbol=u'Ci', atomic_mass=13.003)
element(symbol=u'D', atomic_mass=2.014)
element(symbol=u'Oi', atomic_mass=18.0)
element(symbol=u'T', atomic_mass=3.016)
#-------------------------------------------------------------------------------
# Species data
#-------------------------------------------------------------------------------

species(name=u'n-heptane',
        atoms='H:16 C:7',
        thermo=(NASA([100.00, 1262.73],
                     [-2.91681405E-03,  7.69373649E-02, -3.48025563E-05,
                       1.86095180E-09,  2.01573617E-12, -2.57829342E+04,
                       3.00312148E+01]),
                NASA([1262.73, 5000.00],
                     [ 1.38377915E+01,  4.85945016E-02, -1.95474548E-05,
                       3.52837178E-09, -2.39064676E-13, -3.05141556E+04,
                      -4.48642836E+01])))

species(name=u'Ar',
        atoms='Ar:1',
        thermo=(NASA([200.00, 1000.00],
                     [ 2.50000000E+00,  0.00000000E+00,  0.00000000E+00,
                       0.00000000E+00,  0.00000000E+00, -7.45375000E+02,
                       4.37967000E+00]),
                NASA([1000.00, 6000.00],
                     [ 2.50000000E+00,  0.00000000E+00,  0.00000000E+00,
                       0.00000000E+00,  0.00000000E+00, -7.45375000E+02,
                       4.37967000E+00])))

species(name=u'He',
        atoms='He:1',
        thermo=(NASA([200.00, 1000.00],
                     [ 2.50000000E+00,  0.00000000E+00,  0.00000000E+00,
                       0.00000000E+00,  0.00000000E+00, -7.45375000E+02,
                       9.28724000E-01]),
                NASA([1000.00, 6000.00],
                     [ 2.50000000E+00,  0.00000000E+00,  0.00000000E+00,
                       0.00000000E+00,  0.00000000E+00, -7.45375000E+02,
                       9.28724000E-01])))

species(name=u'Ne',
        atoms='Ne:1',
        thermo=(NASA([200.00, 1000.00],
                     [ 2.50000000E+00,  0.00000000E+00,  0.00000000E+00,
                       0.00000000E+00,  0.00000000E+00, -7.45375000E+02,
                       3.35532000E+00]),
                NASA([1000.00, 6000.00],
                     [ 2.50000000E+00,  0.00000000E+00,  0.00000000E+00,
                       0.00000000E+00,  0.00000000E+00, -7.45375000E+02,
                       3.35532000E+00])))

species(name=u'N2',
        atoms='N:2',
        thermo=(NASA([200.00, 1000.00],
                     [ 3.53101000E+00, -1.23661000E-04, -5.02999000E-07,
                       2.43531000E-09, -1.40881000E-12, -1.04698000E+03,
                       2.96747000E+00]),
                NASA([1000.00, 6000.00],
                     [ 2.95258000E+00,  1.39690000E-03, -4.92632000E-07,
                       7.86010000E-11, -4.60755000E-15, -9.23949000E+02,
                       5.87189000E+00])))

species(name=u'C2H4(2)',
        atoms='H:4 C:2',
        thermo=(NASA([100.00, 979.36],
                     [ 3.97471606E+00, -4.75844285E-03,  4.16783770E-05,
                      -4.51392516E-08,  1.54224761E-11,  4.91540746E+03,
                       3.62430844E+00]),
                NASA([979.36, 5000.00],
                     [ 3.55660610E+00,  1.10627464E-02, -4.17019079E-06,
                       7.85586770E-10, -5.70060829E-14,  4.32046489E+03,
                       2.17719479E+00])))

species(name=u'C4H8-1(3)',
        atoms='H:8 C:4',
        thermo=(NASA([100.00, 1007.28],
                     [ 2.58772906E+00,  2.32777969E-02,  1.93412349E-05,
                      -3.55496333E-08,  1.36906009E-11, -1.91872926E+03,
                       1.45750618E+01]),
                NASA([1007.28, 5000.00],
                     [ 7.20517168E+00,  2.36361568E-02, -9.03150028E-06,
                       1.65392666E-09, -1.16019260E-13, -3.79733937E+03,
                      -1.24426257E+01])))

species(name=u'C4H8-2(4)',
        atoms='H:8 C:4',
        thermo=(NASA([100.00, 1157.79],
                     [ 2.51998327E+00,  2.76812799E-02,  9.43783469E-07,
                      -1.25009101E-08,  4.67144666E-12, -3.34374767E+03,
                       1.30195623E+01]),
                NASA([1157.79, 5000.00],
                     [ 6.04225708E+00,  2.60072350E-02, -1.04843374E-05,
                       1.90880922E-09, -1.30600505E-13, -4.86276511E+03,
                      -7.52715109E+00])))

species(name=u'C4H6(7)',
        atoms='H:6 C:4',
        thermo=(NASA([100.00, 946.05],
                     [ 2.80599310E+00,  1.02584471E-02,  6.17260255E-05,
                      -9.01642687E-08,  3.59116961E-11,  1.16584972E+04,
                       1.20621434E+01]),
                NASA([946.05, 5000.00],
                     [ 1.24693720E+01,  1.00553901E-02, -2.41206872E-06,
                       4.57077303E-10, -3.93160571E-14,  8.01077795E+03,
                      -4.36374720E+01])))

species(name=u'C3H6(32)',
        atoms='H:6 C:3',
        thermo=(NASA([100.00, 983.75],
                     [ 3.31912102E+00,  8.17958674E-03,  3.34736123E-05,
                      -4.36193684E-08,  1.58213364E-11,  7.49325328E+02,
                       9.54025058E+00]),
                NASA([983.75, 5000.00],
                     [ 5.36755173E+00,  1.70743019E-02, -6.35107626E-06,
                       1.16619529E-09, -8.27620279E-14, -4.87138326E+02,
                      -4.54467529E+00])))

species(name=u'H2(68)',
        atoms='H:2',
        thermo=(NASA([100.00, 1959.08],
                     [ 3.43536412E+00,  2.12710353E-04, -2.78625043E-07,
                       3.40267167E-10, -7.76031998E-14, -1.03135984E+03,
                      -3.90841732E+00]),
                NASA([1959.08, 5000.00],
                     [ 2.78816583E+00,  5.87640942E-04,  1.59010417E-07,
                      -5.52739026E-11,  4.34310984E-15, -5.96144270E+02,
                       1.12732655E-01])))

species(name=u'C8H12(133)',
        atoms='H:12 C:8',
        thermo=(NASA([100.00, 1002.94],
                     [ 1.69489980E-02,  7.28189377E-02, -2.16585698E-05,
                      -2.40807783E-08,  1.44597041E-11,  1.38562447E+04,
                       3.07679077E+01]),
                NASA([1002.94, 5000.00],
                     [ 1.77276883E+01,  3.45993801E-02, -1.29781828E-05,
                       2.37500136E-09, -1.67643536E-13,  8.67334638E+03,
                      -6.28559377E+01])))

species(name=u'C6H10(158)',
        atoms='H:10 C:6',
        thermo=(NASA([100.00, 1020.63],
                     [ 9.97427413E-01,  5.59777045E-02, -2.05880600E-05,
                      -1.17182304E-08,  8.13452041E-12,  6.30749855E+03,
                       2.38941836E+01]),
                NASA([1020.63, 5000.00],
                     [ 1.33828218E+01,  2.83661253E-02, -1.07663110E-05,
                       1.95749020E-09, -1.36589418E-13,  2.68926840E+03,
                      -4.14511818E+01])))

species(name=u'C8H14(165)',
        atoms='H:14 C:8',
        thermo=(NASA([100.00, 1014.29],
                     [-3.67121846E-01,  8.14233516E-02, -3.11110886E-05,
                      -1.65487757E-08,  1.19185866E-11, -3.02333684E+03,
                       3.00035003E+01]),
                NASA([1014.29, 5000.00],
                     [ 1.79686767E+01,  3.98264136E-02, -1.50150741E-05,
                       2.72531006E-09, -1.90287561E-13, -8.32275149E+03,
                      -6.65042554E+01])))

species(name=u'C4H8(187)',
        atoms='H:8 C:4',
        thermo=(NASA([100.00, 1061.33],
                     [ 2.52504770E+00,  2.64752782E-02,  7.08359238E-06,
                      -2.07731462E-08,  8.00430055E-12, -4.02607130E+03,
                       1.28857274E+01]),
                NASA([1061.33, 5000.00],
                     [ 6.48672669E+00,  2.49943921E-02, -9.83283171E-06,
                       1.79343299E-09, -1.24008235E-13, -5.62452310E+03,
                      -1.00316397E+01])))

species(name=u'CH4(413)',
        atoms='H:4 C:1',
        thermo=(NASA([100.00, 1084.12],
                     [ 4.20541524E+00, -5.35557362E-03,  2.51123265E-05,
                      -2.13762843E-08,  5.97523937E-12, -1.01619433E+04,
                      -9.21279283E-01]),
                NASA([1084.12, 5000.00],
                     [ 9.08265721E-01,  1.14540858E-02, -4.57173828E-06,
                       8.29191671E-10, -5.66314895E-14, -9.71997444E+03,
                       1.39930944E+01])))

species(name=u'C5H10(416)',
        atoms='H:10 C:5',
        thermo=(NASA([100.00, 1883.68],
                     [ 2.29195787E+00,  4.21076449E-02, -1.49304794E-05,
                      -1.22102583E-10,  5.99441346E-13, -4.98138150E+03,
                       1.67887076E+01]),
                NASA([1883.68, 5000.00],
                     [ 1.47438472E+01,  2.72460315E-02, -1.23172689E-05,
                       2.21660273E-09, -1.44084857E-13, -1.17269008E+04,
                      -5.66226025E+01])))

species(name=u'C5H10(418)',
        atoms='H:10 C:5',
        thermo=(NASA([100.00, 960.03],
                     [ 1.92494941E+00,  3.23872757E-02,  3.28626489E-05,
                      -6.30221575E-08,  2.59714460E-11, -5.50776492E+03,
                       1.86664331E+01]),
                NASA([960.03, 5000.00],
                     [ 1.12167303E+01,  2.64314616E-02, -9.01591566E-06,
                       1.60298644E-09, -1.13436933E-13, -8.80144986E+03,
                      -3.36443365E+01])))

species(name=u'C5H10(419)',
        atoms='H:10 C:5',
        thermo=(NASA([100.00, 1065.88],
                     [ 1.83973645E+00,  3.88165649E-02,  3.95415802E-06,
                      -2.48620336E-08,  1.01608534E-11, -6.45875726E+03,
                       1.88194915E+01]),
                NASA([1065.88, 5000.00],
                     [ 8.87931728E+00,  3.15047857E-02, -1.26438740E-05,
                       2.33666558E-09, -1.63001335E-13, -9.04475166E+03,
                      -2.06827600E+01])))

species(name=u'C2H6(428)',
        atoms='H:6 C:2',
        thermo=(NASA([100.00, 1012.42],
                     [ 3.72239291E+00,  1.65083841E-03,  3.44175530E-05,
                      -3.76858229E-08,  1.24450657E-11, -1.15575901E+04,
                       4.68247999E+00]),
                NASA([1012.42, 5000.00],
                     [ 2.82848257E+00,  1.73040568E-02, -6.73334245E-06,
                       1.23742024E-09, -8.65676410E-14, -1.19978080E+04,
                       5.93811707E+00])))

species(name=u'C6H12(433)',
        atoms='H:12 C:6',
        thermo=(NASA([100.00, 2065.44],
                     [ 1.68598658E+00,  5.58664307E-02, -2.53057821E-05,
                       3.98016615E-09, -6.94904807E-14, -7.81739466E+03,
                       2.09919882E+01]),
                NASA([2065.44, 5000.00],
                     [ 2.13486140E+01,  2.79136045E-02, -1.23596487E-05,
                       2.17527434E-09, -1.38347372E-13, -1.80997789E+04,
                      -9.33598720E+01])))

species(name=u'C6H12(434)',
        atoms='H:12 C:6',
        thermo=(NASA([100.00, 1018.92],
                     [ 1.21827324E+00,  4.88303598E-02,  8.49335826E-06,
                      -3.91899735E-08,  1.67107196E-11, -8.55522126E+03,
                       2.43074946E+01]),
                NASA([1018.92, 5000.00],
                     [ 1.16698119E+01,  3.59250755E-02, -1.39120664E-05,
                       2.55991991E-09, -1.79822160E-13, -1.21450086E+04,
                      -3.34751762E+01])))

species(name=u'C8H14(440)',
        atoms='H:14 C:8',
        thermo=(NASA([100.00, 1031.59],
                     [-3.24308169E-01,  8.09803459E-02, -3.24425386E-05,
                      -1.31536671E-08,  1.01843255E-11, -1.50090156E+03,
                       3.15196958E+01]),
                NASA([1031.59, 5000.00],
                     [ 1.73697073E+01,  4.09232311E-02, -1.57129317E-05,
                       2.86474556E-09, -1.99759457E-13, -6.67068809E+03,
                      -6.17573781E+01])))

species(name=u'C3H8(444)',
        atoms='H:8 C:3',
        thermo=(NASA([100.00, 989.99],
                     [ 3.06336167E+00,  1.29214561E-02,  3.47032808E-05,
                      -4.70946154E-08,  1.71384141E-11, -1.43905789E+04,
                       1.07835592E+01]),
                NASA([989.99, 5000.00],
                     [ 5.60440043E+00,  2.19528785E-02, -8.22080610E-06,
                       1.50103993E-09, -1.05635358E-13, -1.58394038E+04,
                      -6.22623300E+00])))

species(name=u'C4H10(445)',
        atoms='H:10 C:4',
        thermo=(NASA([100.00, 1147.60],
                     [ 2.16918413E+00,  3.43904632E-02, -1.61564236E-06,
                      -1.30726562E-08,  5.17350451E-12, -1.72505136E+04,
                       1.46546701E+01]),
                NASA([1147.60, 5000.00],
                     [ 6.78903089E+00,  3.03598162E-02, -1.21262050E-05,
                       2.19945025E-09, -1.50289312E-13, -1.91057969E+04,
                      -1.17329103E+01])))

species(name=u'C5H10(469)',
        atoms='H:10 C:5',
        thermo=(NASA([100.00, 1054.71],
                     [ 2.07229480E+00,  3.36844001E-02,  1.40189744E-05,
                      -3.27909735E-08,  1.24687335E-11, -7.08395627E+03,
                       1.85216921E+01]),
                NASA([1054.71, 5000.00],
                     [ 7.69906317E+00,  3.25047725E-02, -1.29748243E-05,
                       2.39429532E-09, -1.67023134E-13, -9.39218314E+03,
                      -1.42396425E+01])))

species(name=u'C8H14(672)',
        atoms='H:14 C:8',
        thermo=(NASA([100.00, 1506.76],
                     [ 5.49675181E-02,  8.43985440E-02, -5.64633487E-05,
                       1.98661295E-08, -2.94599969E-12, -7.77393079E+02,
                       2.95663347E+01]),
                NASA([1506.76, 5000.00],
                     [ 1.39949012E+01,  4.73919655E-02, -1.96226018E-05,
                       3.56583689E-09, -2.41458224E-13, -4.97819756E+03,
                      -4.34005510E+01])))

species(name=u'C8H14(984)',
        atoms='H:14 C:8',
        thermo=(NASA([100.00, 1016.25],
                     [-1.96777655E-01,  7.73097837E-02, -2.22069863E-05,
                      -2.37965356E-08,  1.39851151E-11, -2.84093532E+03,
                       3.12908370E+01]),
                NASA([1016.25, 5000.00],
                     [ 1.72431734E+01,  4.07120734E-02, -1.54898359E-05,
                       2.82734689E-09, -1.98026375E-13, -8.04042418E+03,
                      -6.12697843E+01])))

species(name=u'S(1070)',
        atoms='H:14 C:8',
        thermo=(NASA([100.00, 999.32],
                     [-8.27296041E-02,  7.33926821E-02, -9.70961131E-06,
                      -3.77339221E-08,  1.91784792E-11, -2.27794802E+03,
                       3.16114703E+01]),
                NASA([999.32, 5000.00],
                     [ 1.74908493E+01,  3.99675318E-02, -1.49508424E-05,
                       2.72972667E-09, -1.92366979E-13, -7.63361766E+03,
                      -6.23819175E+01])))

species(name=u'S(1653)',
        atoms='H:18 C:10',
        thermo=(NASA([100.00, 1158.48],
                     [-1.73167591E+00,  1.09077891E-01, -5.83333229E-05,
                       5.40067358E-09,  3.60301005E-12, -6.92483725E+03,
                       4.08092886E+01]),
                NASA([1158.48, 5000.00],
                     [ 2.11409181E+01,  5.59043600E-02, -2.28913870E-05,
                       4.22976090E-09, -2.93014074E-13, -1.39556654E+04,
                      -8.03749852E+01])))

species(name=u'S(1717)',
        atoms='H:14 C:8',
        thermo=(NASA([100.00, 1061.60],
                     [-2.92612015E-01,  8.13598166E-02, -3.75111047E-05,
                      -5.26746011E-09,  6.79996745E-12, -3.15203310E+03,
                       3.11249298E+01]),
                NASA([1061.60, 5000.00],
                     [ 1.65258017E+01,  4.22160438E-02, -1.64331635E-05,
                       2.99218456E-09, -2.07335165E-13, -8.08806756E+03,
                      -5.74492182E+01])))

species(name=u'S(2775)',
        atoms='H:14 C:7',
        thermo=(NASA([100.00, 1054.67],
                     [ 4.65448694E-01,  6.48479495E-02, -9.56906733E-06,
                      -2.58210160E-08,  1.23868753E-11, -1.13879550E+04,
                       2.85629425E+01]),
                NASA([1054.67, 5000.00],
                     [ 1.32840013E+01,  4.31737590E-02, -1.70613062E-05,
                       3.13615581E-09, -2.18574261E-13, -1.55902553E+04,
                      -4.10652525E+01])))

species(name=u'S(2816)',
        atoms='H:12 C:6',
        thermo=(NASA([100.00, 727.96],
                     [ 9.39440133E-01,  7.36827282E-02, -7.88408848E-05,
                       6.61457863E-08, -2.57040766E-11, -8.86666114E+03,
                       2.10074400E+01]),
                NASA([727.96, 5000.00],
                     [ 3.15400112E+00,  5.47777314E-02, -2.60055290E-05,
                       5.04732853E-09, -3.55800709E-13, -9.01059211E+03,
                       1.22525714E+01])))

species(name=u'S(2817)',
        atoms='H:14 C:7',
        thermo=(NASA([100.00, 1064.53],
                     [ 4.62611058E-01,  6.51511088E-02, -1.10907613E-05,
                      -2.36780577E-08,  1.14817237E-11, -1.11141761E+04,
                       2.92323618E+01]),
                NASA([1064.53, 5000.00],
                     [ 1.31480102E+01,  4.35198650E-02, -1.72954075E-05,
                       3.18164942E-09, -2.21522846E-13, -1.52901125E+04,
                      -3.96892243E+01])))

species(name=u'S(3025)',
        atoms='H:14 C:7',
        thermo=(NASA([100.00, 1054.67],
                     [ 4.65448694E-01,  6.48479495E-02, -9.56906733E-06,
                      -2.58210160E-08,  1.23868753E-11, -1.13879550E+04,
                       2.92560896E+01]),
                NASA([1054.67, 5000.00],
                     [ 1.32840013E+01,  4.31737590E-02, -1.70613062E-05,
                       3.13615581E-09, -2.18574261E-13, -1.55902553E+04,
                      -4.03721053E+01])))

species(name=u'S(3583)',
        atoms='H:18 C:10',
        thermo=(NASA([100.00, 1038.10],
                     [-1.63606842E+00,  1.05948223E-01, -4.48721255E-05,
                      -1.37610845E-08,  1.19267863E-11, -9.13856725E+03,
                       4.08578356E+01]),
                NASA([1038.10, 5000.00],
                     [ 2.12270975E+01,  5.35110627E-02, -2.06291097E-05,
                       3.76028699E-09, -2.61802446E-13, -1.58068004E+04,
                      -7.95529940E+01])))

species(name=u'S(3638)',
        atoms='H:18 C:10',
        thermo=(NASA([100.00, 1039.92],
                     [-1.68892614E+00,  1.04892160E-01, -3.63678012E-05,
                      -2.44904322E-08,  1.57571722E-11, -8.20566676E+03,
                       3.91111957E+01]),
                NASA([1039.92, 5000.00],
                     [ 2.26524637E+01,  5.26991456E-02, -2.08505326E-05,
                       3.87716665E-09, -2.73674615E-13, -1.55087267E+04,
                      -9.00469670E+01])))

species(name=u'S(3714)',
        atoms='H:18 C:10',
        thermo=(NASA([100.00, 1188.78],
                     [-1.95300717E+00,  1.15046892E-01, -7.59923563E-05,
                       2.20571103E-08, -1.46154816E-12, -1.03349424E+04,
                       4.06077933E+01]),
                NASA([1188.78, 5000.00],
                     [ 2.15567328E+01,  5.36921349E-02, -2.09728234E-05,
                       3.76285270E-09, -2.55770737E-13, -1.71787854E+04,
                      -8.21540077E+01])))

species(name=u'S(4119)',
        atoms='H:18 C:10',
        thermo=(NASA([100.00, 1091.06],
                     [-1.75140178E+00,  1.10205167E-01, -6.07838718E-05,
                       5.37602654E-09,  4.56468895E-12, -9.27267051E+03,
                       3.99141768E+01]),
                NASA([1091.06, 5000.00],
                     [ 2.07353004E+01,  5.46510751E-02, -2.13704545E-05,
                       3.87875579E-09, -2.67347996E-13, -1.57797898E+04,
                      -7.78643522E+01])))

species(name=u'S(4539)',
        atoms='H:22 C:12',
        thermo=(NASA([100.00, 1560.60],
                     [-3.64054127E+00,  1.45950192E-01, -1.05415282E-04,
                       3.92761964E-08, -5.92020768E-12, -1.58527244E+04,
                       5.18478521E+01]),
                NASA([1560.60, 5000.00],
                     [ 2.99361750E+01,  5.98898044E-02, -2.26973547E-05,
                       3.94051510E-09, -2.59658559E-13, -2.63327690E+04,
                      -1.25084652E+02])))

species(name=u'S(5556)',
        atoms='H:22 C:12',
        thermo=(NASA([100.00, 1122.79],
                     [-3.20986555E+00,  1.38723541E-01, -8.32668659E-05,
                       1.54291809E-08,  2.45621035E-12, -1.48010152E+04,
                       5.03103403E+01]),
                NASA([1122.79, 5000.00],
                     [ 2.51514706E+01,  6.68850606E-02, -2.63039450E-05,
                       4.76954585E-09, -3.27680627E-13, -2.30103656E+04,
                      -9.79978956E+01])))

species(name=u'S(5865)',
        atoms='H:16 C:9',
        thermo=(NASA([100.00, 1074.64],
                     [-1.09649839E+00,  9.72149551E-02, -5.12043309E-05,
                       1.02540784E-09,  5.56089458E-12, -4.33278752E+03,
                       3.65384447E+01]),
                NASA([1074.64, 5000.00],
                     [ 1.91393534E+01,  4.79178224E-02, -1.87197875E-05,
                       3.40805431E-09, -2.35824099E-13, -1.01847442E+04,
                      -6.95362119E+01])))

species(name=u'S(5869)',
        atoms='H:12 C:5',
        thermo=(NASA([100.00, 1083.72],
                     [ 1.61174582E+00,  4.32467983E-02,  5.74950528E-06,
                      -2.75134571E-08,  1.08080045E-11, -2.00565292E+04,
                       1.98944429E+01]),
                NASA([1083.72, 5000.00],
                     [ 8.53683820E+00,  3.80814435E-02, -1.53303035E-05,
                       2.81977580E-09, -1.95507768E-13, -2.27551513E+04,
                      -1.95975419E+01])))

species(name=u'S(5909)',
        atoms='H:16 C:8',
        thermo=(NASA([100.00, 1101.74],
                     [-3.02651568E-01,  8.10186813E-02, -2.80330966E-05,
                      -1.21354914E-08,  8.02001340E-12, -1.42199976E+04,
                       3.42611998E+01]),
                NASA([1101.74, 5000.00],
                     [ 1.51381607E+01,  5.00380884E-02, -1.99984150E-05,
                       3.66389588E-09, -2.53403166E-13, -1.91444395E+04,
                      -4.86355338E+01])))

species(name=u'S(5914)',
        atoms='H:16 C:8',
        thermo=(NASA([100.00, 1101.74],
                     [-3.02651568E-01,  8.10186813E-02, -2.80330966E-05,
                      -1.21354914E-08,  8.02001340E-12, -1.42199976E+04,
                       3.42611998E+01]),
                NASA([1101.74, 5000.00],
                     [ 1.51381607E+01,  5.00380884E-02, -1.99984150E-05,
                       3.66389588E-09, -2.53403166E-13, -1.91444395E+04,
                      -4.86355338E+01])))

species(name=u'S(5962)',
        atoms='H:14 C:6',
        thermo=(NASA([100.00, 1048.16],
                     [ 8.83603407E-01,  5.70449582E-02, -2.15511769E-06,
                      -2.85512365E-08,  1.26618641E-11, -2.27982664E+04,
                       2.50352381E+01]),
                NASA([1048.16, 5000.00],
                     [ 1.11354266E+01,  4.25244017E-02, -1.65829595E-05,