units(length='cm', time='s', quantity='mol', act_energy='kcal/mol')

ideal_gas(name='gas',
          elements="H D T C Ci O Oi N Ne Ar He Si S Cl X",
          species="""n-heptane   Ar          He          Ne
                     N2          C2H4(2)     C4H8-1(3)   C4H8-2(4)
                     C4H6(7)     C6H8(9)     H2(68)      C8H10(113)
                     C6H9(136)   S(163)      S(181)      S(185)
                     S(189)      S(244)      S(264)      C6H10(651)
                     S(875)      C7H8(1587)  S(1945)     S(2106)""",
          reactions='gas-*',
          initial_state=state(temperature=300.0, pressure=OneAtm))

ideal_interface(name='surface1',
                elements="H D T C Ci O Oi N Ne Ar He Si S Cl X",
                species="""X(1)        HX(5)       C2H3X(37)   C4H5X(80)
                          C4H5X(81)   C6H9X(192)  SX(407)     SX(409)
                          SX(410)     SX(412)     SX(413)     SX(415)
                          SX(417)     SX(418)     SX(419)     SX(420)
                          SX(541)     SX(542)     SX(543)     SX(544)
                          SX(545)     SX(546)     SX(547)     SX(548)
                          SX(550)     SX(551)     SX(552)     SX(553)
                          SX(1277)    SX(1281)    SX(1282)    SX(1289)
                          SX(1290)    SX(1296)    SX(1297)    SX(1309)
                          SX(1310)    SX(1311)    SX(1320)    SX(1327)
                          SX(1339)    SX(1340)    SX(1347)    SX(1348)
                          SX(1369)    SX(1370)    SX(1371)    SX(1377)
                          SX(1378)    SX(1379)    SX(1404)    SX(1405)
                          SX(1417)    SX(1418)    SX(1447)    SX(1448)
                          SX(1475)    SX(1476)    SX(1524)    SX(1528)
                          SX(1529)    SX(1535)    SX(1536)    SX(1540)
                          SX(1545)    SX(1548)    SX(1549)    SX(1570)
                          SX(1574)    SX(1576)    SX(1579)    SX(1742)
                          SX(1744)    SX(1768)    SX(1769)    SX(1811)
                          SX(1820)    SX(1878)    SX(2084)    SX(2097)
                          SX(2098)    SX(2238)    SX(2239)""",
                site_density=2.72e-09,
                phases="gas",
          reactions='surface1-*',
                initial_state=state(temperature=300.0, pressure=OneAtm))

#-------------------------------------------------------------------------------
# Element data
#-------------------------------------------------------------------------------

element(symbol=u'X', atomic_mass=195.083)
element(symbol=u'Ci', atomic_mass=13.003)
element(symbol=u'D', atomic_mass=2.014)
element(symbol=u'Oi', atomic_mass=18.0)
element(symbol=u'T', atomic_mass=3.016)
#-------------------------------------------------------------------------------
# Species data
#-------------------------------------------------------------------------------

species(name=u'n-heptane',
        atoms='H:16 C:7',
        thermo=(NASA([100.00, 1262.73],
                     [-2.91681405E-03,  7.69373649E-02, -3.48025563E-05,
                       1.86095180E-09,  2.01573617E-12, -2.57829342E+04,
                       3.00312148E+01]),
                NASA([1262.73, 5000.00],
                     [ 1.38377915E+01,  4.85945016E-02, -1.95474548E-05,
                       3.52837178E-09, -2.39064676E-13, -3.05141556E+04,
                      -4.48642836E+01])))

species(name=u'Ar',
        atoms='Ar:1',
        thermo=(NASA([200.00, 1000.00],
                     [ 2.50000000E+00,  0.00000000E+00,  0.00000000E+00,
                       0.00000000E+00,  0.00000000E+00, -7.45375000E+02,
                       4.37967000E+00]),
                NASA([1000.00, 6000.00],
                     [ 2.50000000E+00,  0.00000000E+00,  0.00000000E+00,
                       0.00000000E+00,  0.00000000E+00, -7.45375000E+02,
                       4.37967000E+00])))

species(name=u'He',
        atoms='He:1',
        thermo=(NASA([200.00, 1000.00],
                     [ 2.50000000E+00,  0.00000000E+00,  0.00000000E+00,
                       0.00000000E+00,  0.00000000E+00, -7.45375000E+02,
                       9.28724000E-01]),
                NASA([1000.00, 6000.00],
                     [ 2.50000000E+00,  0.00000000E+00,  0.00000000E+00,
                       0.00000000E+00,  0.00000000E+00, -7.45375000E+02,
                       9.28724000E-01])))

species(name=u'Ne',
        atoms='Ne:1',
        thermo=(NASA([200.00, 1000.00],
                     [ 2.50000000E+00,  0.00000000E+00,  0.00000000E+00,
                       0.00000000E+00,  0.00000000E+00, -7.45375000E+02,
                       3.35532000E+00]),
                NASA([1000.00, 6000.00],
                     [ 2.50000000E+00,  0.00000000E+00,  0.00000000E+00,
                       0.00000000E+00,  0.00000000E+00, -7.45375000E+02,
                       3.35532000E+00])))

species(name=u'N2',
        atoms='N:2',
        thermo=(NASA([200.00, 1000.00],
                     [ 3.53101000E+00, -1.23661000E-04, -5.02999000E-07,
                       2.43531000E-09, -1.40881000E-12, -1.04698000E+03,
                       2.96747000E+00]),
                NASA([1000.00, 6000.00],
                     [ 2.95258000E+00,  1.39690000E-03, -4.92632000E-07,
                       7.86010000E-11, -4.60755000E-15, -9.23949000E+02,
                       5.87189000E+00])))

species(name=u'C2H4(2)',
        atoms='H:4 C:2',
        thermo=(NASA([100.00, 979.36],
                     [ 3.97471606E+00, -4.75844285E-03,  4.16783770E-05,
                      -4.51392516E-08,  1.54224761E-11,  4.91540746E+03,
                       3.62430844E+00]),
                NASA([979.36, 5000.00],
                     [ 3.55660610E+00,  1.10627464E-02, -4.17019079E-06,
                       7.85586770E-10, -5.70060829E-14,  4.32046489E+03,
                       2.17719479E+00])))

species(name=u'C4H8-1(3)',
        atoms='H:8 C:4',
        thermo=(NASA([100.00, 1007.28],
                     [ 2.58772906E+00,  2.32777969E-02,  1.93412349E-05,
                      -3.55496333E-08,  1.36906009E-11, -1.91872926E+03,
                       1.45750618E+01]),
                NASA([1007.28, 5000.00],
                     [ 7.20517168E+00,  2.36361568E-02, -9.03150028E-06,
                       1.65392666E-09, -1.16019260E-13, -3.79733937E+03,
                      -1.24426257E+01])))

species(name=u'C4H8-2(4)',
        atoms='H:8 C:4',
        thermo=(NASA([100.00, 1157.79],
                     [ 2.51998327E+00,  2.76812799E-02,  9.43783469E-07,
                      -1.25009101E-08,  4.67144666E-12, -3.34374767E+03,
                       1.30195623E+01]),
                NASA([1157.79, 5000.00],
                     [ 6.04225708E+00,  2.60072350E-02, -1.04843374E-05,
                       1.90880922E-09, -1.30600505E-13, -4.86276511E+03,
                      -7.52715109E+00])))

species(name=u'C4H6(7)',
        atoms='H:6 C:4',
        thermo=(NASA([100.00, 946.05],
                     [ 2.80599310E+00,  1.02584471E-02,  6.17260255E-05,
                      -9.01642687E-08,  3.59116961E-11,  1.16584972E+04,
                       1.20621434E+01]),
                NASA([946.05, 5000.00],
                     [ 1.24693720E+01,  1.00553901E-02, -2.41206872E-06,
                       4.57077303E-10, -3.93160571E-14,  8.01077795E+03,
                      -4.36374720E+01])))

species(name=u'C6H8(9)',
        atoms='H:8 C:6',
        thermo=(NASA([100.00, 941.22],
                     [ 1.38427980E+00,  4.14411503E-02,  1.94287417E-05,
                      -6.16688700E-08,  2.86503633E-11,  1.76317461E+04,
                       1.93257509E+01]),
                NASA([941.22, 5000.00],
                     [ 1.69619680E+01,  1.57221707E-02, -4.10118367E-06,
                       6.95736344E-10, -5.26521484E-14,  1.29061672E+04,
                      -6.44097553E+01])))

species(name=u'H2(68)',
        atoms='H:2',
        thermo=(NASA([100.00, 1959.08],
                     [ 3.43536412E+00,  2.12710353E-04, -2.78625043E-07,
                       3.40267167E-10, -7.76031998E-14, -1.03135984E+03,
                      -3.90841732E+00]),
                NASA([1959.08, 5000.00],
                     [ 2.78816583E+00,  5.87640942E-04,  1.59010417E-07,
                      -5.52739026E-11,  4.34310984E-15, -5.96144270E+02,
                       1.12732655E-01])))

species(name=u'C8H10(113)',
        atoms='H:10 C:8',
        thermo=(NASA([100.00, 941.38],
                     [ 8.64508879E-02,  6.59507123E-02,  1.49007776E-06,
                      -6.06862449E-08,  3.13845046E-11,  2.39088929E+04,
                       2.66192822E+01]),
                NASA([941.38, 5000.00],
                     [ 2.28417755E+01,  1.96704891E-02, -5.08803462E-06,
                       8.53682038E-10, -6.42382395E-14,  1.73909786E+04,
                      -9.36509497E+01])))

species(name=u'C6H9(136)',
        atoms='H:9 C:6',
        thermo=(NASA([100.00, 995.34],
                     [ 1.62522454E+00,  3.93401586E-02,  1.78978273E-05,
                      -4.78993847E-08,  2.01402388E-11,  1.69431093E+04,
                       2.25224222E+01]),
                NASA([995.34, 5000.00],
                     [ 1.22021413E+01,  2.74567638E-02, -1.03424270E-05,
                       1.92565312E-09, -1.38069748E-13,  1.33207104E+04,
                      -3.60755769E+01])))

species(name=u'S(163)',
        atoms='H:14 C:10',
        thermo=(NASA([100.00, 1005.33],
                     [-8.70330413E-01,  8.89793335E-02, -2.38552724E-05,
                      -3.15628111E-08,  1.81664076E-11,  3.78335548E+04,
                       4.06086741E+01]),
                NASA([1005.33, 5000.00],
                     [ 2.02610588E+01,  4.45995858E-02, -1.68699763E-05,
                       3.08363695E-09, -2.16972192E-13,  3.15786714E+04,
                      -7.14276628E+01])))

species(name=u'S(181)',
        atoms='H:16 C:12',
        thermo=(NASA([100.00, 985.43],
                     [-1.88304682E+00,  1.07042194E-01, -2.70554103E-05,
                      -4.30549514E-08,  2.47781880E-11,  4.00783494E+04,
                       4.74620913E+01]),
                NASA([985.43, 5000.00],
                     [ 2.44922294E+01,  5.06805346E-02, -1.84366585E-05,
                       3.32433721E-09, -2.33631810E-13,  3.24185269E+04,
                      -9.18863874E+01])))

species(name=u'S(185)',
        atoms='H:16 C:12',
        thermo=(NASA([100.00, 992.45],
                     [-1.36726188E+00,  9.09276671E-02,  1.69902518E-05,
                      -8.53947805E-08,  3.84301239E-11,  2.11993195E+04,
                       3.87738109E+01]),
                NASA([992.45, 5000.00],
                     [ 2.42201531E+01,  5.14040751E-02, -1.94056379E-05,
                       3.62910452E-09, -2.61722320E-13,  1.29880616E+04,
                      -1.00257920E+02])))

species(name=u'S(189)',
        atoms='H:16 C:12',
        thermo=(NASA([100.00, 961.97],
                     [-1.50816176E+00,  8.75229397E-02,  4.32196782E-05,
                      -1.26059866E-07,  5.63926918E-11,  3.17299871E+04,
                       4.22614545E+01]),
                NASA([961.97, 5000.00],
                     [ 2.93787122E+01,  4.15661279E-02, -1.37239862E-05,
                       2.52954162E-09, -1.88135179E-13,  2.19715065E+04,
                      -1.25386845E+02])))

species(name=u'S(244)',
        atoms='H:16 C:12',
        thermo=(NASA([100.00, 1082.71],
                     [-1.42165646E+00,  1.00366054E-01, -2.86690015E-05,
                      -2.45430021E-08,  1.37134617E-11,  2.67269131E+04,
                       3.45501008E+01]),
                NASA([1082.71, 5000.00],
                     [ 1.94956582E+01,  6.02181764E-02, -2.44875026E-05,
                       4.55572743E-09, -3.18938634E-13,  2.00211421E+04,
                      -7.80762928E+01])))

species(name=u'S(264)',
        atoms='H:16 C:12',
        thermo=(NASA([100.00, 967.86],
                     [-1.32209228E+00,  8.47378361E-02,  4.59787499E-05,
                      -1.23781967E-07,  5.42497769E-11,  2.23199283E+04,
                       3.57020946E+01]),
                NASA([967.86, 5000.00],
                     [ 2.71811605E+01,  4.57697461E-02, -1.58000646E-05,
                       2.92345730E-09, -2.14846023E-13,  1.31102045E+04,
                      -1.19952912E+02])))

species(name=u'C6H10(651)',
        atoms='H:10 C:6',
        thermo=(NASA([100.00, 1020.63],
                     [ 9.97427413E-01,  5.59777045E-02, -2.05880600E-05,
                      -1.17182304E-08,  8.13452041E-12,  6.30749855E+03,
                       2.38941836E+01]),
                NASA([1020.63, 5000.00],
                     [ 1.33828218E+01,  2.83661253E-02, -1.07663110E-05,
                       1.95749020E-09, -1.36589418E-13,  2.68926840E+03,
                      -4.14511818E+01])))

species(name=u'S(875)',
        atoms='H:16 C:12',
        thermo=(NASA([100.00, 992.69],
                     [-2.16821098E+00,  1.13500613E-01, -4.18937515E-05,
                      -3.03524070E-08,  2.07540517E-11,  4.41106970E+04,
                       4.79017194E+01]),
                NASA([992.69, 5000.00],
                     [ 2.60887848E+01,  4.86324276E-02, -1.79039207E-05,
                       3.25242392E-09, -2.29439930E-13,  3.60866742E+04,
                      -1.00373160E+02])))

species(name=u'C7H8(1587)',
        atoms='H:8 C:7',
        thermo=(NASA([100.00, 966.81],
                     [ 1.90138903E+00,  2.67868079E-02,  6.30523366E-05,
                      -9.95224287E-08,  3.94205761E-11,  1.54781489E+04,
                       1.80530900E+01]),
                NASA([966.81, 5000.00],
                     [ 1.41488720E+01,  2.45164605E-02, -8.51969957E-06,
                       1.61189695E-09, -1.20790154E-13,  1.08478608E+04,
                      -5.23192761E+01])))

species(name=u'S(1945)',
        atoms='H:12 C:7',
        thermo=(NASA([100.00, 1002.43],
                     [ 5.99026497E-01,  6.08356728E-02, -5.37073264E-06,
                      -3.39970972E-08,  1.67132278E-11,  1.51423754E+03,
                       2.71654250E+01]),
                NASA([1002.43, 5000.00],
                     [ 1.50955492E+01,  3.44559544E-02, -1.29812324E-05,
                       2.37752287E-09, -1.67696341E-13, -2.97306291E+03,
                      -5.06926804E+01])))

species(name=u'S(2106)',
        atoms='H:16 C:12',
        thermo=(NASA([100.00, 1038.45],
                     [-1.33671845E+00,  9.23557028E-02,  9.00535297E-06,
                      -6.89763877E-08,  2.99496724E-11,  1.88389589E+04,
                       3.69328586E+01]),
                NASA([1038.45, 5000.00],
                     [ 2.18393518E+01,  5.93159237E-02, -2.44953345E-05,
                       4.67599092E-09, -3.35412401E-13,  1.09935684E+04,
                      -9.03511895E+01])))

species(name=u'X(1)',
        atoms='X:1',
        thermo=(NASA([100.00, 1554.80],
                     [ 7.10139498E-03, -4.25619522E-05,  8.98533016E-08,
                      -7.80193649E-11,  2.32465471E-14, -8.76101712E-01,
                      -3.11211229E-02]),
                NASA([1554.80, 5000.00],
                     [ 1.60299900E-01, -2.52235409E-04,  1.14181275E-07,
                      -1.21471653E-11,  3.85790025E-16, -7.08100885E+01,
                      -9.09527530E-01])))

species(name=u'HX(5)',
        atoms='H:1 X:1',
        thermo=(NASA([100.00, 952.91],
                     [-3.80965452E-01,  5.47228709E-03,  2.60912778E-06,
                      -9.64961980E-09,  4.63946753E-12, -5.07085371E+03,
                       1.01725550E+00]),
                NASA([952.91, 5000.00],
                     [ 2.80339655E+00, -5.41047017E-04,  4.99507978E-07,
                      -7.54963647E-11,  3.06772366E-15, -6.01160313E+03,
                      -1.59436787E+01])))

species(name=u'C2H3X(37)',
        atoms='H:3 C:2 X:1',
        thermo=(NASA([100.00, 928.62],
                     [ 3.83091018E+00, -8.76381562E-03,  6.97956896E-05,
                      -8.67969174E-08,  3.33218121E-11,  5.22670203E+03,
                      -1.81151753E+01]),
                NASA([928.62, 5000.00],
                     [ 8.78054562E+00,  1.92497720E-03,  8.25825014E-07,
                      -1.63749818E-10,  5.71728318E-15,  2.92729890E+03,
                      -4.90588618E+01])))

species(name=u'C4H5X(80)',
        atoms='H:5 C:4 X:1',
        thermo=(NASA([100.00, 936.52],
                     [ 2.68471723E+00,  1.36244496E-02,  5.32591849E-05,
                      -8.32912448E-08,  3.41499374E-11,  7.31993221E+03,
                      -1.06510487E+01]),
                NASA([936.52, 5000.00],
                     [ 1.29012266E+01,  8.96921861E-03, -1.71920076E-06,
                       2.89744517E-10, -2.58686364E-14,  3.69689327E+03,
                      -6.83963397E+01])))

species(name=u'C4H5X(81)',
        atoms='H:5 C:4 X:1',
        thermo=(NASA([100.00, 928.63],
                     [ 2.64232495E+00,  8.31109593E-03,  8.12146261E-05,
                      -1.21398701E-07,  4.98630759E-11,  1.25028410E+04,
                      -1.03932963E+01]),
                NASA([928.63, 5000.00],
                     [ 1.69490474E+01,  2.00818812E-03,  2.03468841E-06,
                      -4.02657023E-10,  1.85400094E-14,  7.46034660E+03,
                      -9.11990785E+01])))

species(name=u'C6H9X(192)',
        atoms='H:9 C:6 X:1',
        thermo=(NASA([100.00, 995.64],
                     [ 1.00158150E+00,  5.37831764E-02, -1.05077719E-05,
                      -2.52898569E-08,  1.36194364E-11,  1.40047077E+04,
                       4.73928304E+00]),
                NASA([995.64, 5000.00],
                     [ 1.48279675E+01,  2.56881420E-02, -9.53965888E-06,
                       1.75504791E-09, -1.24935257E-13,  9.89078274E+03,
                      -6.87379050E+01])))

species(name=u'SX(407)',
        atoms='H:15 C:12 X:1',
        thermo=(NASA([100.00, 998.97],
                     [-8.99471708E-01,  7.61906300E-02,  6.22755405E-05,
                      -1.28403241E-07,  5.19561596E-11,  1.64030267E+04,
                       1.70460900E+01]),
                NASA([998.97, 5000.00],
                     [ 2.29677772E+01,  5.66231660E-02, -2.24612172E-05,
                       4.30391511E-09, -3.14023333E-13,  7.84234335E+03,
                      -1.17055355E+02])))

species(name=u'SX(409)',
        atoms='H:15 C:12 X:1',
        thermo=(NASA([100.00, 984.86],
                     [-1.25415917E+00,  8.14723399E-02,  5.99670849E-05,
                      -1.35047832E-07,  5.65263335E-11,  1.38145865E+04,
                       1.50885788E+01]),
                NASA([984.86, 5000.00],
                     [ 2.64955777E+01,  5.12028157E-02, -1.94857584E-05,
                       3.72553762E-09, -2.74703249E-13,  4.35075676E+03,
                      -1.38661398E+02])))

species(name=u'SX(410)',
        atoms='H:15 C:12 X:1',
        thermo=(NASA([100.00, 997.04],
                     [-1.22047231E+00,  8.68484986E-02,  2.60827202E-05,
                      -9.32243731E-08,  4.06496059E-11,  2.76031027E+04,
                       1.98829986E+01]),
                NASA([997.04, 5000.00],
                     [ 2.39598117E+01,  5.16453034E-02, -1.99734851E-05,
                       3.77822022E-09, -2.73872604E-13,  1.93105321E+04,
                      -1.17928271E+02])))

species(name=u'SX(412)',
        atoms='H:15 C:12 X:1',
        thermo=(NASA([100.00, 976.31],
                     [-1.37882584E+00,  8.72729725E-02,  3.54645112E-05,
                      -1.10989729E-07,  4.90790319E-11,  2.05749410E+04,
                       1.56116669E+01]),
                NASA([976.31, 5000.00],
                     [ 2.68030035E+01,  4.65647436E-02, -1.68432173E-05,
                       3.15349492E-09, -2.31121478E-13,  1.15093542E+04,
                      -1.37919629E+02])))

species(name=u'SX(413)',
        atoms='H:15 C:12 X:1',
        thermo=(NASA([100.00, 976.31],
                     [-1.37882584E+00,  8.72729725E-02,  3.54645112E-05,
                      -1.10989729E-07,  4.90790319E-11,  2.05749410E+04,
                       1.56116669E+01]),
                NASA([976.31, 5000.00],
                     [ 2.68030035E+01,  4.65647436E-02, -1.68432173E-05,
                       3.15349492E-09, -2.31121478E-13,  1.15093542E+04,
                      -1.37919629E+02])))

species(name=u'SX(415)',
        atoms='H:15 C:12 X:1',
        thermo=(NASA([100.00, 976.31],
                     [-1.37882584E+00,  8.72729725E-02,  3.54645112E-05,
                      -1.10989729E-07,  4.90790319E-11,  2.05749410E+04,
                       1.56116669E+01]),
                NASA([976.31, 5000.00],
                     [ 2.68030035E+01,  4.65647436E-02, -1.68432173E-05,
                       3.15349492E-09, -2.31121478E-13,  1.15093542E+04,
                      -1.37919629E+02])))

species(name=u'SX(417)',
        atoms='H:15 C:12 X:1',
        thermo=(NASA([100.00, 969.93],
                     [-1.42901548E+00,  8.92840294E-02,  3.08945489E-05,
                      -1.06998659E-07,  4.80954617E-11,  1.59038944E+04,
                       1.49144147E+01]),
                NASA([969.93, 5000.00],
                     [ 2.64408716E+01,  4.71691220E-02, -1.65932307E-05,
                       3.04879253E-09, -2.21334610E-13,  7.07220132E+03,
                      -1.36348449E+02])))

species(name=u'SX(418)',
        atoms='H:15 C:12 X:1',
        thermo=(NASA([100.00, 969.93],
                     [-1.42901548E+00,  8.92840294E-02,  3.08945489E-05,
                      -1.06998659E-07,  4.80954617E-11,  1.59038944E+04,
                       1.49144147E+01]),
                NASA([969.93, 5000.00],
                     [ 2.64408716E+01,  4.71691220E-02, -1.65932307E-05,
                       3.04879253E-09, -2.21334610E-13,  7.07220132E+03,
                      -1.36348449E+02])))

species(name=u'SX(419)',
        atoms='H:15 C:12 X:1',
        thermo=(NASA([100.00, 970.34],
                     [-1.41774466E+00,  8.61761971E-02,  4.36551332E-05,
                      -1.22944357E-07,  5.41540457E-11,  2.16912522E+04,
                       1.56806467E+01]),
                NASA([970.34, 5000.00],
                     [ 2.81969666E+01,  4.42913736E-02, -1.55653820E-05,
                       2.91362941E-09, -2.15576821E-13,  1.21685355E+04,
                      -1.45755724E+02])))

species(name=u'SX(420)',
        atoms='H:15 C:12 X:1',
        thermo=(NASA([100.00, 970.34],
                     [-1.41774466E+00,  8.61761971E-02,  4.36551332E-05,
                      -1.22944357E-07,  5.41540457E-11,  2.16912522E+04,
                       1.56806467E+01]),
                NASA([970.34, 5000.00],
                     [ 2.81969666E+01,  4.42913736E-02, -1.55653820E-05,
                       2.91362941E-09, -2.15576821E-13,  1.21685355E+04,
                      -1.45755724E+02])))

species(name=u'SX(541)',
        atoms='H:15 C:12 X:1',
        thermo=(NASA([100.00, 955.42],
                     [-3.77476746E-01,  5.39184300E-02,  1.37549526E-04,
                      -2.19711044E-07,  8.84765334E-11,  1.89645074E+04,
                       1.69442326E+01]),
                NASA([955.42, 5000.00],
                     [ 2.73970405E+01,  4.40433306E-02, -1.40049416E-05,
                       2.60888730E-09, -1.99027511E-13,  8.80070674E+03,
                      -1.41200875E+02])))

species(name=u'SX(542)',
        atoms='H:15 C:12 X:1',
        thermo=(NASA([100.00, 972.19],
                     [-1.17661044E+00,  8.06798521E-02,  5.49669496E-05,
                      -1.31426508E-07,  5.63655657E-11,  2.87237643E+04,
                       1.68156213E+01]),
                NASA([972.19, 5000.00],
                     [ 2.68988151E+01,  4.60463391E-02, -1.63874698E-05,
                       3.07704975E-09, -2.27358752E-13,  1.94425842E+04,
                      -1.37498126E+02])))

species(name=u'SX(543)',
        atoms='H:15 C:12 X:1',
        thermo=(NASA([100.00, 965.89],
                     [-1.00971623E+00,  7.64988302E-02,  6.69829358E-05,
                      -1.43294674E-07,  6.06292750E-11,  1.97271977E+04,
                       1.35283870E+01]),
                NASA([965.89, 5000.00],
                     [ 2.60237808E+01,  4.73683335E-02, -1.64000530E-05,
                       3.03400227E-09, -2.23019581E-13,  1.06415380E+04,
                      -1.35953586E+02])))

species(name=u'SX(544)',
        atoms='H:15 C:12 X:1',
        thermo=(NASA([100.00, 955.56],
                     [-7.54266692E-01,  6.47572775E-02,  1.08170416E-04,
                      -1.91449214E-07,  7.90764244E-11,  1.97896913E+04,
                       1.49971913E+01]),
                NASA([955.56, 5000.00],
                     [ 2.82737270E+01,  4.27834190E-02, -1.35884302E-05,
                       2.51241232E-09, -1.90371440E-13,  9.69775229E+03,
                      -1.47505091E+02])))

species(name=u'SX(545)',
        atoms='H:15 C:12 X:1',
        thermo=(NASA([100.00, 958.33],
                     [-1.34074199E+00,  8.11550088E-02,  6.42667724E-05,
                      -1.49250138E-07,  6.49043836E-11,  2.16958606E+04,
                       1.25660421E+01]),
                NASA([958.33, 5000.00],
                     [ 2.98578974E+01,  4.07751619E-02, -1.31499063E-05,
                       2.42743012E-09, -1.82570774E-13,  1.15906276E+04,
                      -1.58145865E+02])))

species(name=u'SX(546)',
        atoms='H:15 C:12 X:1',
        thermo=(NASA([100.00, 958.33],
                     [-1.34074199E+00,  8.11550088E-02,  6.42667724E-05,
                      -1.49250138E-07,  6.49043836E-11,  2.16958606E+04,
                       1.25660421E+01]),
                NASA([958.33, 5000.00],
                     [ 2.98578974E+01,  4.07751619E-02, -1.31499063E-05,
                       2.42743012E-09, -1.82570774E-13,  1.15906276E+04,
                      -1.58145865E+02])))

species(name=u'SX(547)',
        atoms='H:15 C:12 X:1',
        thermo=(NASA([100.00, 958.33],
                     [-1.34074199E+00,  8.11550088E-02,  6.42667724E-05,
                      -1.49250138E-07,  6.49043836E-11,  2.16958606E+04,
                       1.25660421E+01]),
                NASA([958.33, 5000.00],
                     [ 2.98578974E+01,  4.07751619E-02, -1.31499063E-05,
                       2.42743012E-09, -1.82570774E-13,  1.15906276E+04,
                      -1.58145865E+02])))

species(name=u'SX(548)',
        atoms='H:15 C:12 X:1',
        thermo=(NASA([100.00, 952.80],
                     [-1.39079761E+00,  8.31583695E-02,  5.97568310E-05,
                      -1.45393815E-07,  6.40076464E-11,  1.70248111E+04,
                       1.18686722E+01]),
                NASA([952.80, 5000.00],
                     [ 2.95236012E+01,  4.13339747E-02, -1.28743661E-05,
                       2.31681578E-09, -1.72301270E-13,  7.14121723E+03,
                      -1.56732451E+02])))

species(name=u'SX(550)',
        atoms='H:15 C:12 X:1',
        thermo=(NASA([100.00, 952.80],
                     [-1.39079761E+00,  8.31583695E-02,  5.97568310E-05,
                      -1.45393815E-07,  6.40076464E-11,  1.70248111E+04,
                       1.18686722E+01]),
                NASA([952.80, 5000.00],
                     [ 2.95236012E+01,  4.13339747E-02, -1.28743661E-05,
                       2.31681578E-09, -1.72301270E-13,  7.14121723E+03,
                      -1.56732451E+02])))

species(name=u'SX(551)',
        atoms='H:15 C:12 X:1',
        thermo=(NASA([100.00, 952.80],
                     [-1.39079761E+00,  8.31583695E-02,  5.97568310E-05,
                      -1.45393815E-07,  6.40076464E-11,  1.70248111E+04,
                       1.18686722E+01]),
                NASA([952.80, 5000.00],
                     [ 2.95236012E+01,  4.13339747E-02, -1.28743661E-05,
                       2.31681578E-09, -1.72301270E-13,  7.14121723E+03,
                      -1.56732451E+02])))

species(name=u'SX(552)',
        atoms='H:15 C:12 X:1',
        thermo=(NASA([100.00, 952.80],
                     [-1.39079761E+00,  8.31583695E-02,  5.97568310E-05,
                      -1.45393815E-07,  6.40076464E-11,  1.70248111E+04,
                       1.18686722E+01]),
                NASA([952.80, 5000.00],
                     [ 2.95236012E+01,  4.13339747E-02, -1.28743661E-05,
                       2.31681578E-09, -1.72301270E-13,  7.14121723E+03,
                      -1.56732451E+02])))

species(name=u'SX(553)',
        atoms='H:15 C:12 X:1',
        thermo=(NASA([100.00, 954.63],
                     [-1.38245943E+00,  8.00874904E-02,  7.23764511E-05,
                      -1.61138502E-07,  6.99717590E-11,  2.28122936E+04,
                       1.26452718E+01]),
                NASA([954.63, 5000.00],
                     [ 3.12844187E+01,  3.84476664E-02, -1.18413631E-05,
                       2.18039765E-09, -1.66437057E-13,  1.22357331E+04,
                      -1.66165996E+02])))

species(name=u'SX(1277)',
        atoms='H:15 C:12 X:1',
        thermo=(NASA([100.00, 968.81],
                     [-1.58640374E+00,  9.02666767E-02,  3.48481932E-05,
                      -1.15848892E-07,  5.21652174E-11,  2.15087803E+04,
                       1.50806133E+01]),
                NASA([968.81, 5000.00],
                     [ 2.89302252E+01,  4.33937055E-02, -1.50841748E-05,
                       2.81015203E-09, -2.07723595E-13,  1.18825664E+04,
                      -1.50341436E+02])))

species(name=u'SX(1281)',
        atoms='H:15 C:12 X:1',
        thermo=(NASA([100.00, 912.99],