units(length='cm', time='s', quantity='mol', act_energy='kcal/mol')

ideal_gas(name='gas',
          elements="H D T C Ci O Oi N Ne Ar He Si S Cl X",
          species="""n-heptane   Ar          He          Ne
                     N2          C2H4(2)     C4H8-1(3)   C4H8-2(4)
                     C4H6(7)     C6H8(9)     H2(68)      C6H8(119)
                     S(194)      S(198)      S(264)      S(424)
                     S(442)      S(452)      S(479)      S(490)
                     S(492)      C8H12(940)  S(1720)""",
          reactions='gas-*',
          initial_state=state(temperature=300.0, pressure=OneAtm))

ideal_interface(name='surface1',
                elements="H D T C Ci O Oi N Ne Ar He Si S Cl X",
                species="""X(1)        HX(5)       C2H3X(37)   C4H5X(80)
                          C4H5X(81)   C6H7X(142)  C6H7X(143)  C6H7X(144)
                          SX(313)     C6H7X(327)  SX(608)     SX(610)
                          SX(611)     SX(613)     SX(614)     SX(616)
                          SX(617)     SX(768)     SX(769)     SX(774)
                          SX(789)     SX(790)     SX(803)     SX(809)
                          SX(832)     SX(833)     SX(897)     SX(899)
                          SX(900)     SX(901)     SX(902)     SX(931)
                          SX(991)     SX(993)     SX(994)     SX(995)
                          SX(996)     SX(1185)    SX(1187)    SX(1188)
                          SX(1190)    SX(1191)    SX(1192)    SX(1193)
                          SX(1194)    SX(1195)    SX(1196)    SX(1219)
                          SX(1234)    SX(1237)    SX(1238)    SX(1326)
                          SX(1444)    SX(1446)    SX(1448)    SX(1449)
                          SX(1450)    SX(1451)    SX(1452)    SX(1456)
                          SX(1457)    SX(1493)    SX(1505)    SX(1516)
                          SX(1542)    SX(1668)    SX(1688)    SX(1696)
                          SX(1697)    SX(1702)    SX(1703)    SX(1704)""",
                site_density=2.72e-09,
                phases="gas",
          reactions='surface1-*',
                initial_state=state(temperature=300.0, pressure=OneAtm))

#-------------------------------------------------------------------------------
# Element data
#-------------------------------------------------------------------------------

element(symbol=u'X', atomic_mass=195.083)
element(symbol=u'Ci', atomic_mass=13.003)
element(symbol=u'D', atomic_mass=2.014)
element(symbol=u'Oi', atomic_mass=18.0)
element(symbol=u'T', atomic_mass=3.016)
#-------------------------------------------------------------------------------
# Species data
#-------------------------------------------------------------------------------

species(name=u'n-heptane',
        atoms='H:16 C:7',
        thermo=(NASA([100.00, 1262.73],
                     [-2.91681405E-03,  7.69373649E-02, -3.48025563E-05,
                       1.86095180E-09,  2.01573617E-12, -2.57829342E+04,
                       3.00312148E+01]),
                NASA([1262.73, 5000.00],
                     [ 1.38377915E+01,  4.85945016E-02, -1.95474548E-05,
                       3.52837178E-09, -2.39064676E-13, -3.05141556E+04,
                      -4.48642836E+01])))

species(name=u'Ar',
        atoms='Ar:1',
        thermo=(NASA([200.00, 1000.00],
                     [ 2.50000000E+00,  0.00000000E+00,  0.00000000E+00,
                       0.00000000E+00,  0.00000000E+00, -7.45375000E+02,
                       4.37967000E+00]),
                NASA([1000.00, 6000.00],
                     [ 2.50000000E+00,  0.00000000E+00,  0.00000000E+00,
                       0.00000000E+00,  0.00000000E+00, -7.45375000E+02,
                       4.37967000E+00])))

species(name=u'He',
        atoms='He:1',
        thermo=(NASA([200.00, 1000.00],
                     [ 2.50000000E+00,  0.00000000E+00,  0.00000000E+00,
                       0.00000000E+00,  0.00000000E+00, -7.45375000E+02,
                       9.28724000E-01]),
                NASA([1000.00, 6000.00],
                     [ 2.50000000E+00,  0.00000000E+00,  0.00000000E+00,
                       0.00000000E+00,  0.00000000E+00, -7.45375000E+02,
                       9.28724000E-01])))

species(name=u'Ne',
        atoms='Ne:1',
        thermo=(NASA([200.00, 1000.00],
                     [ 2.50000000E+00,  0.00000000E+00,  0.00000000E+00,
                       0.00000000E+00,  0.00000000E+00, -7.45375000E+02,
                       3.35532000E+00]),
                NASA([1000.00, 6000.00],
                     [ 2.50000000E+00,  0.00000000E+00,  0.00000000E+00,
                       0.00000000E+00,  0.00000000E+00, -7.45375000E+02,
                       3.35532000E+00])))

species(name=u'N2',
        atoms='N:2',
        thermo=(NASA([200.00, 1000.00],
                     [ 3.53101000E+00, -1.23661000E-04, -5.02999000E-07,
                       2.43531000E-09, -1.40881000E-12, -1.04698000E+03,
                       2.96747000E+00]),
                NASA([1000.00, 6000.00],
                     [ 2.95258000E+00,  1.39690000E-03, -4.92632000E-07,
                       7.86010000E-11, -4.60755000E-15, -9.23949000E+02,
                       5.87189000E+00])))

species(name=u'C2H4(2)',
        atoms='H:4 C:2',
        thermo=(NASA([100.00, 979.36],
                     [ 3.97471606E+00, -4.75844285E-03,  4.16783770E-05,
                      -4.51392516E-08,  1.54224761E-11,  4.91540746E+03,
                       3.62430844E+00]),
                NASA([979.36, 5000.00],
                     [ 3.55660610E+00,  1.10627464E-02, -4.17019079E-06,
                       7.85586770E-10, -5.70060829E-14,  4.32046489E+03,
                       2.17719479E+00])))

species(name=u'C4H8-1(3)',
        atoms='H:8 C:4',
        thermo=(NASA([100.00, 1007.28],
                     [ 2.58772906E+00,  2.32777969E-02,  1.93412349E-05,
                      -3.55496333E-08,  1.36906009E-11, -1.91872926E+03,
                       1.45750618E+01]),
                NASA([1007.28, 5000.00],
                     [ 7.20517168E+00,  2.36361568E-02, -9.03150028E-06,
                       1.65392666E-09, -1.16019260E-13, -3.79733937E+03,
                      -1.24426257E+01])))

species(name=u'C4H8-2(4)',
        atoms='H:8 C:4',
        thermo=(NASA([100.00, 1157.79],
                     [ 2.51998327E+00,  2.76812799E-02,  9.43783469E-07,
                      -1.25009101E-08,  4.67144666E-12, -3.34374767E+03,
                       1.30195623E+01]),
                NASA([1157.79, 5000.00],
                     [ 6.04225708E+00,  2.60072350E-02, -1.04843374E-05,
                       1.90880922E-09, -1.30600505E-13, -4.86276511E+03,
                      -7.52715109E+00])))

species(name=u'C4H6(7)',
        atoms='H:6 C:4',
        thermo=(NASA([100.00, 946.05],
                     [ 2.80599310E+00,  1.02584471E-02,  6.17260255E-05,
                      -9.01642687E-08,  3.59116961E-11,  1.16584972E+04,
                       1.20621434E+01]),
                NASA([946.05, 5000.00],
                     [ 1.24693720E+01,  1.00553901E-02, -2.41206872E-06,
                       4.57077303E-10, -3.93160571E-14,  8.01077795E+03,
                      -4.36374720E+01])))

species(name=u'C6H8(9)',
        atoms='H:8 C:6',
        thermo=(NASA([100.00, 941.22],
                     [ 1.38427980E+00,  4.14411503E-02,  1.94287417E-05,
                      -6.16688700E-08,  2.86503633E-11,  1.76317461E+04,
                       1.93257509E+01]),
                NASA([941.22, 5000.00],
                     [ 1.69619680E+01,  1.57221707E-02, -4.10118367E-06,
                       6.95736344E-10, -5.26521484E-14,  1.29061672E+04,
                      -6.44097553E+01])))

species(name=u'H2(68)',
        atoms='H:2',
        thermo=(NASA([100.00, 1959.08],
                     [ 3.43536412E+00,  2.12710353E-04, -2.78625043E-07,
                       3.40267167E-10, -7.76031998E-14, -1.03135984E+03,
                      -3.90841732E+00]),
                NASA([1959.08, 5000.00],
                     [ 2.78816583E+00,  5.87640942E-04,  1.59010417E-07,
                      -5.52739026E-11,  4.34310984E-15, -5.96144270E+02,
                       1.12732655E-01])))

species(name=u'C6H8(119)',
        atoms='H:8 C:6',
        thermo=(NASA([100.00, 972.94],
                     [ 1.82686070E+00,  3.47046353E-02,  2.41070171E-05,
                      -5.44847920E-08,  2.29388832E-11,  1.99100661E+04,
                       1.81393315E+01]),
                NASA([972.94, 5000.00],
                     [ 1.21686202E+01,  2.40472785E-02, -8.58151834E-06,
                       1.57034031E-09, -1.12795334E-13,  1.63897115E+04,
                      -3.92195169E+01])))

species(name=u'S(194)',
        atoms='H:16 C:12',
        thermo=(NASA([100.00, 985.43],
                     [-1.88304682E+00,  1.07042194E-01, -2.70554103E-05,
                      -4.30549514E-08,  2.47781880E-11,  4.00783494E+04,
                       4.74620913E+01]),
                NASA([985.43, 5000.00],
                     [ 2.44922294E+01,  5.06805346E-02, -1.84366585E-05,
                       3.32433721E-09, -2.33631810E-13,  3.24185269E+04,
                      -9.18863874E+01])))

species(name=u'S(198)',
        atoms='H:16 C:12',
        thermo=(NASA([100.00, 992.45],
                     [-1.36726188E+00,  9.09276671E-02,  1.69902518E-05,
                      -8.53947805E-08,  3.84301239E-11,  2.11993195E+04,
                       3.87738109E+01]),
                NASA([992.45, 5000.00],
                     [ 2.42201531E+01,  5.14040751E-02, -1.94056379E-05,
                       3.62910452E-09, -2.61722320E-13,  1.29880616E+04,
                      -1.00257920E+02])))

species(name=u'S(264)',
        atoms='H:16 C:12',
        thermo=(NASA([100.00, 967.86],
                     [-1.32209228E+00,  8.47378361E-02,  4.59787499E-05,
                      -1.23781967E-07,  5.42497769E-11,  2.23199283E+04,
                       3.57020946E+01]),
                NASA([967.86, 5000.00],
                     [ 2.71811605E+01,  4.57697461E-02, -1.58000646E-05,
                       2.92345730E-09, -2.14846023E-13,  1.31102045E+04,
                      -1.19952912E+02])))

species(name=u'S(424)',
        atoms='H:14 C:10',
        thermo=(NASA([100.00, 968.43],
                     [-1.78657670E-01,  6.27636610E-02,  6.13275679E-05,
                      -1.25568699E-07,  5.26247225E-11,  1.23467547E+04,
                       3.16624716E+01]),
                NASA([968.43, 5000.00],
                     [ 2.28001036E+01,  3.95488872E-02, -1.37666755E-05,
                       2.57450736E-09, -1.90686366E-13,  4.53405575E+03,
                      -9.58178615E+01])))

species(name=u'S(442)',
        atoms='H:16 C:12',
        thermo=(NASA([100.00, 983.18],
                     [-2.05097756E+00,  1.11125066E-01, -3.58412237E-05,
                      -3.59772249E-08,  2.27919017E-11,  3.98958457E+04,
                       4.68593887E+01]),
                NASA([983.18, 5000.00],
                     [ 2.52169911E+01,  4.97969231E-02, -1.79633975E-05,
                       3.22270937E-09, -2.25930287E-13,  3.21362552E+04,
                      -9.64240230E+01])))

species(name=u'S(452)',
        atoms='H:16 C:12',
        thermo=(NASA([100.00, 965.51],
                     [-1.48010848E+00,  8.73195699E-02,  4.32084939E-05,
                      -1.24323023E-07,  5.52324518E-11,  1.86240551E+04,
                       3.89687652E+01]),
                NASA([965.51, 5000.00],
                     [ 2.86828957E+01,  4.34912924E-02, -1.47497714E-05,
                       2.73150662E-09, -2.02190259E-13,  9.01787604E+03,
                      -1.25075357E+02])))

species(name=u'S(479)',
        atoms='H:16 C:12',
        thermo=(NASA([100.00, 980.77],
                     [-2.21845665E+00,  1.15202302E-01, -4.46058253E-05,
                      -2.89292454E-08,  2.08193354E-11,  3.97133228E+04,
                       4.48687920E+01]),
                NASA([980.77, 5000.00],
                     [ 2.59409200E+01,  4.89148103E-02, -1.74910345E-05,
                       3.12129948E-09, -2.18247198E-13,  3.18543069E+04,
                      -1.02343316E+02])))

species(name=u'S(490)',
        atoms='H:16 C:12',
        thermo=(NASA([100.00, 989.29],
                     [-1.49871027E+00,  8.97231513E-02,  3.13728211E-05,
                      -1.05849951E-07,  4.65472901E-11,  2.08342656E+04,
                       3.86324941E+01]),
                NASA([989.29, 5000.00],
                     [ 2.71231573E+01,  4.82447418E-02, -1.83146882E-05,
                       3.49879125E-09, -2.57494969E-13,  1.15378770E+04,
                      -1.17506583E+02])))

species(name=u'S(492)',
        atoms='H:16 C:12',
        thermo=(NASA([100.00, 963.92],
                     [-1.64845539E+00,  9.14058212E-02,  3.44191801E-05,
                      -1.17255074E-07,  5.32576818E-11,  1.84415701E+04,
                       3.83676457E+01]),
                NASA([963.92, 5000.00],
                     [ 2.94170858E+01,  4.25921898E-02, -1.42677982E-05,
                       2.62785878E-09, -1.94323548E-13,  8.73146814E+03,
                      -1.29666404E+02])))

species(name=u'C8H12(940)',
        atoms='H:12 C:8',
        thermo=(NASA([100.00, 966.56],
                     [-1.28183216E-01,  7.35572918E-02, -1.44333618E-05,
                      -3.89698452E-08,  2.17299794E-11,  1.04422483E+04,
                       2.89601759E+01]),
                NASA([966.56, 5000.00],
                     [ 2.02785414E+01,  2.99584765E-02, -1.01704686E-05,
                       1.81720743E-09, -1.29537878E-13,  4.58909334E+03,
                      -7.86679341E+01])))

species(name=u'S(1720)',
        atoms='H:16 C:12',
        thermo=(NASA([100.00, 990.56],
                     [-1.32892162E+00,  8.56175091E-02,  4.02422312E-05,
                      -1.13041663E-07,  4.85846312E-11,  2.10166900E+04,
                       3.92285904E+01]),
                NASA([990.56, 5000.00],
                     [ 2.63931502E+01,  4.91374623E-02, -1.87932792E-05,
                       3.60169126E-09, -2.65302821E-13,  1.18222932E+04,
                      -1.12939530E+02])))

species(name=u'X(1)',
        atoms='X:1',
        thermo=(NASA([100.00, 1554.80],
                     [ 7.10139498E-03, -4.25619522E-05,  8.98533016E-08,
                      -7.80193649E-11,  2.32465471E-14, -8.76101712E-01,
                      -3.11211229E-02]),
                NASA([1554.80, 5000.00],
                     [ 1.60299900E-01, -2.52235409E-04,  1.14181275E-07,
                      -1.21471653E-11,  3.85790025E-16, -7.08100885E+01,
                      -9.09527530E-01])))

species(name=u'HX(5)',
        atoms='H:1 X:1',
        thermo=(NASA([100.00, 952.91],
                     [-3.80965452E-01,  5.47228709E-03,  2.60912778E-06,
                      -9.64961980E-09,  4.63946753E-12, -3.62029043E+03,
                       1.01725550E+00]),
                NASA([952.91, 5000.00],
                     [ 2.80339655E+00, -5.41047017E-04,  4.99507978E-07,
                      -7.54963647E-11,  3.06772366E-15, -4.56103985E+03,
                      -1.59436787E+01])))

species(name=u'C2H3X(37)',
        atoms='H:3 C:2 X:1',
        thermo=(NASA([100.00, 928.62],
                     [ 3.83091018E+00, -8.76381562E-03,  6.97956896E-05,
                      -8.67969174E-08,  3.33218121E-11,  8.12782859E+03,
                      -1.81151753E+01]),
                NASA([928.62, 5000.00],
                     [ 8.78054562E+00,  1.92497720E-03,  8.25825014E-07,
                      -1.63749818E-10,  5.71728318E-15,  5.82842547E+03,
                      -4.90588618E+01])))

species(name=u'C4H5X(80)',
        atoms='H:5 C:4 X:1',
        thermo=(NASA([100.00, 936.52],
                     [ 2.68471723E+00,  1.36244496E-02,  5.32591849E-05,
                      -8.32912448E-08,  3.41499374E-11,  1.02210588E+04,
                      -1.06510487E+01]),
                NASA([936.52, 5000.00],
                     [ 1.29012266E+01,  8.96921861E-03, -1.71920076E-06,
                       2.89744517E-10, -2.58686364E-14,  6.59801984E+03,
                      -6.83963397E+01])))

species(name=u'C4H5X(81)',
        atoms='H:5 C:4 X:1',
        thermo=(NASA([100.00, 928.63],
                     [ 2.64232495E+00,  8.31109593E-03,  8.12146261E-05,
                      -1.21398701E-07,  4.98630759E-11,  1.54039675E+04,
                      -1.03932963E+01]),
                NASA([928.63, 5000.00],
                     [ 1.69490474E+01,  2.00818812E-03,  2.03468841E-06,
                      -4.02657023E-10,  1.85400094E-14,  1.03614732E+04,
                      -9.11990785E+01])))

species(name=u'C6H7X(142)',
        atoms='H:7 C:6 X:1',
        thermo=(NASA([100.00, 921.05],
                     [ 1.31110668E+00,  3.98923999E-02,  3.32232523E-05,
                      -8.35252706E-08,  3.86326964E-11,  1.52379547E+04,
                      -3.79723913E+00]),
                NASA([921.05, 5000.00],
                     [ 1.94238968E+01,  1.10879295E-02, -1.06296587E-06,
                       6.28490794E-11, -7.95124353E-15,  9.78664417E+03,
                      -1.01171530E+02])))

species(name=u'C6H7X(143)',
        atoms='H:7 C:6 X:1',
        thermo=(NASA([100.00, 937.50],
                     [ 1.68534221E+00,  3.10727778E-02,  5.20803235E-05,
                      -9.63157959E-08,  4.10725203E-11,  1.18381404E+04,
                      -3.14968750E+00]),
                NASA([937.50, 5000.00],
                     [ 1.71062754E+01,  1.56096156E-02, -3.71084904E-06,
                       6.25093623E-10, -4.95751867E-14,  6.73481630E+03,
                      -8.83483066E+01])))

species(name=u'C6H7X(144)',
        atoms='H:7 C:6 X:1',
        thermo=(NASA([100.00, 928.32],
                     [ 1.31534700E+00,  3.68783497E-02,  4.55986092E-05,
                      -9.88753118E-08,  4.43878511E-11,  2.10256099E+04,
                      -3.00645212E+00]),
                NASA([928.32, 5000.00],
                     [ 2.11711681E+01,  8.22309015E-03, -4.16967724E-08,
                      -7.09091221E-11, -2.30067666E-15,  1.48873310E+04,
                      -1.10527915E+02])))

species(name=u'SX(313)',
        atoms='H:11 C:8 X:1',
        thermo=(NASA([100.00, 958.98],
                     [-1.29640856E-01,  7.13781345E-02, -4.26954811E-06,
                      -5.28292768E-08,  2.74187184E-11,  2.10413086E+04,
                       9.83109352E+00]),
                NASA([958.98, 5000.00],
                     [ 2.17339898E+01,  2.72641222E-02, -8.91149767E-06,
                       1.59376980E-09, -1.15609653E-13,  1.46830676E+04,
                      -1.06020000E+02])))

species(name=u'C6H7X(327)',
        atoms='H:7 C:6 X:1',
        thermo=(NASA([100.00, 945.31],
                     [ 1.76545134E+00,  3.00643386E-02,  5.04823806E-05,
                      -9.18356912E-08,  3.86710488E-11,  2.33036035E+04,
                      -4.22047906E+00]),
                NASA([945.31, 5000.00],
                     [ 1.62876414E+01,  1.66989483E-02, -4.60790511E-06,
                       8.23797195E-10, -6.40998588E-14,  1.84095708E+04,
                      -8.48285150E+01])))

species(name=u'SX(608)',
        atoms='H:13 C:10 X:1',
        thermo=(NASA([100.00, 980.09],
                     [-7.11601081E-02,  5.51564532E-02,  9.33356300E-05,
                      -1.59547857E-07,  6.38088151E-11,  1.39458450E+04,
                       9.46132705E+00]),
                NASA([980.09, 5000.00],
                     [ 2.40867320E+01,  4.15026012E-02, -1.57682102E-05,
                       3.09421209E-09, -2.34162753E-13,  5.13090026E+03,
                      -1.27412990E+02])))

species(name=u'SX(610)',
        atoms='H:15 C:12 X:1',
        thermo=(NASA([100.00, 987.58],
                     [-9.53673816E-01,  6.94567418E-02,  9.89953662E-05,
                      -1.75789719E-07,  7.03673048E-11,  1.93700971E+04,
                       1.65075881E+01]),
                NASA([987.58, 5000.00],
                     [ 2.75829861E+01,  5.08329941E-02, -1.99853220E-05,
                       3.94206265E-09, -2.96893311E-13,  9.00543403E+03,
                      -1.44747128E+02])))

species(name=u'SX(611)',
        atoms='H:15 C:12 X:1',
        thermo=(NASA([100.00, 979.08],
                     [-1.33399033E+00,  8.15327144E-02,  6.10796305E-05,
                      -1.40544064E-07,  5.96430299E-11,  2.34140949E+04,
                       1.53202014E+01]),
                NASA([979.08, 5000.00],
                     [ 2.88000583E+01,  4.54039529E-02, -1.68327432E-05,
                       3.24878532E-09, -2.43575828E-13,  1.33443226E+04,
                      -1.50712786E+02])))

species(name=u'SX(613)',
        atoms='H:15 C:12 X:1',
        thermo=(NASA([100.00, 975.90],
                     [-1.51414519E+00,  8.61139252E-02,  4.96902414E-05,
                      -1.31247290E-07,  5.71155160E-11,  2.31111802E+04,
                       1.54842336E+01]),
                NASA([975.90, 5000.00],
                     [ 2.97270467E+01,  4.33700161E-02, -1.57320116E-05,
                       3.01842347E-09, -2.26501124E-13,  1.29513280E+04,
                      -1.55286980E+02])))

species(name=u'SX(614)',
        atoms='H:15 C:12 X:1',
        thermo=(NASA([100.00, 975.90],
                     [-1.51414519E+00,  8.61139252E-02,  4.96902414E-05,
                      -1.31247290E-07,  5.71155160E-11,  2.31111802E+04,
                       1.54842336E+01]),
                NASA([975.90, 5000.00],
                     [ 2.97270467E+01,  4.33700161E-02, -1.57320116E-05,
                       3.01842347E-09, -2.26501124E-13,  1.29513280E+04,
                      -1.55286980E+02])))

species(name=u'SX(616)',
        atoms='H:15 C:12 X:1',
        thermo=(NASA([100.00, 970.72],
                     [-1.55417774E+00,  8.50306529E-02,  5.78320529E-05,
                      -1.43136626E-07,  6.21619029E-11,  2.42275390E+04,
                       1.55571823E+01]),
                NASA([970.72, 5000.00],
                     [ 3.11250979E+01,  4.10896422E-02, -1.44501156E-05,
                       2.77759506E-09, -2.10876373E-13,  1.36088074E+04,
                      -1.63146059E+02])))

species(name=u'SX(617)',
        atoms='H:15 C:12 X:1',
        thermo=(NASA([100.00, 970.72],
                     [-1.55417774E+00,  8.50306529E-02,  5.78320529E-05,
                      -1.43136626E-07,  6.21619029E-11,  2.42275390E+04,
                       1.55571823E+01]),
                NASA([970.72, 5000.00],
                     [ 3.11250979E+01,  4.10896422E-02, -1.44501156E-05,
                       2.77759506E-09, -2.10876373E-13,  1.36088074E+04,
                      -1.63146059E+02])))

species(name=u'SX(768)',
        atoms='H:15 C:12 X:1',
        thermo=(NASA([100.00, 964.56],
                     [-1.75671250E+00,  9.66647298E-02,  1.57481005E-05,
                      -9.63851787E-08,  4.56735206E-11,  1.93580613E+04,
                       1.75757747E+01]),
                NASA([964.56, 5000.00],
                     [ 2.84210888E+01,  4.39695462E-02, -1.49754042E-05,
                       2.72366072E-09, -1.97971363E-13,  1.01660774E+04,
                      -1.44396594E+02])))

species(name=u'SX(769)',
        atoms='H:15 C:12 X:1',
        thermo=(NASA([100.00, 977.06],
                     [-1.29321385E+00,  8.66749469E-02,  3.43353725E-05,
                      -1.07202573E-07,  4.72030711E-11,  2.27961065E+04,
                       1.53275985E+01]),
                NASA([977.06, 5000.00],
                     [ 2.53347610E+01,  4.91684887E-02, -1.78614970E-05,
                       3.31550889E-09, -2.40575403E-13,  1.41795209E+04,
                      -1.29985496E+02])))

species(name=u'SX(774)',
        atoms='H:15 C:12 X:1',
        thermo=(NASA([100.00, 981.44],
                     [-1.48485114E+00,  8.67553206E-02,  4.39699993E-05,
                      -1.22750540E-07,  5.34340252E-11,  2.60633048E+04,
                       1.82548250E+01]),
                NASA([981.44, 5000.00],
                     [ 2.88299677E+01,  4.48312255E-02, -1.67127878E-05,
                       3.21480867E-09, -2.39808226E-13,  1.61815562E+04,
                      -1.47457030E+02])))

species(name=u'SX(789)',
        atoms='H:15 C:12 X:1',
        thermo=(NASA([100.00, 1001.52],
                     [-1.31030883E+00,  9.26924766E-02,  4.68331905E-06,
                      -6.82413544E-08,  3.14724401E-11,  2.20568760E+04,
                       2.12825238E+01]),
                NASA([1001.52, 5000.00],
                     [ 2.20664136E+01,  5.45618914E-02, -2.09333815E-05,
                       3.87729474E-09, -2.75645478E-13,  1.46043012E+04,
                      -1.05361747E+02])))

species(name=u'SX(790)',
        atoms='H:15 C:12 X:1',
        thermo=(NASA([100.00, 977.25],
                     [-1.69881716E+00,  9.65928099E-02,  9.51811155E-06,
                      -8.60518252E-08,  4.08552434E-11,  2.56408939E+04,
                       1.79478750E+01]),
                NASA([977.25, 5000.00],
                     [ 2.75628281E+01,  4.50996572E-02, -1.62449630E-05,
                       3.01670152E-09, -2.19553810E-13,  1.66613394E+04,
                      -1.39230534E+02])))

species(name=u'SX(803)',
        atoms='H:13 C:10 X:1',
        thermo=(NASA([100.00, 974.47],
                     [-5.67822847E-01,  7.44332444E-02,  2.79708228E-05,
                      -9.21680029E-08,  4.10757439E-11,  1.72954090E+04,
                       1.12948281E+01]),
                NASA([974.47, 5000.00],
                     [ 2.33669438E+01,  3.89342397E-02, -1.39733942E-05,
                       2.60583334E-09, -1.90753815E-13,  9.65138378E+03,
                      -1.18844231E+02])))

species(name=u'SX(809)',
        atoms='H:15 C:12 X:1',
        thermo=(NASA([100.00, 977.25],
                     [-1.69881716E+00,  9.65928099E-02,  9.51811155E-06,
                      -8.60518252E-08,  4.08552434E-11,  2.80060230E+04,
                       1.72547278E+01]),
                NASA([977.25, 5000.00],
                     [ 2.75628281E+01,  4.50996572E-02, -1.62449630E-05,
                       3.01670152E-09, -2.19553810E-13,  1.90264685E+04,
                      -1.39923681E+02])))

species(name=u'SX(832)',
        atoms='H:13 C:10 X:1',
        thermo=(NASA([100.00, 989.97],
                     [ 5.10077553E-02,  5.68671363E-02,  7.82865244E-05,
                      -1.36598342E-07,  5.40706303E-11,  1.04382561E+04,
                       7.76929655E+00]),
                NASA([989.97, 5000.00],
                     [ 2.06205284E+01,  4.72489196E-02, -1.84967193E-05,
                       3.56725152E-09, -2.63099874E-13,  2.76427250E+03,
                      -1.09448512E+02])))

species(name=u'SX(833)',
        atoms='H:13 C:10 X:1',
        thermo=(NASA([100.00, 958.13],
                     [-1.99175339E-01,  5.92036841E-02,  7.95319528E-05,
                      -1.50923311E-07,  6.32287133E-11,  1.46238933E+04,
                       8.53306327E+00]),
                NASA([958.13, 5000.00],
                     [ 2.54829815E+01,  3.45437071E-02, -1.11103432E-05,
                       2.07701086E-09, -1.58288568E-13,  5.91307289E+03,
                      -1.34045294E+02])))

species(name=u'SX(897)',
        atoms='H:13 C:10 X:1',
        thermo=(NASA([100.00, 961.68],
                     [-1.93863812E-02,  5.46304367E-02,  9.08739163E-05,
                      -1.60125274E-07,  6.56987632E-11,  1.49268218E+04,
                       9.06327250E+00]),
                NASA([961.68, 5000.00],
                     [ 2.45403717E+01,  3.66031015E-02, -1.22253040E-05,
                       2.31065638E-09, -1.75630818E-13,  6.31298411E+03,
                      -1.28689343E+02])))

species(name=u'SX(899)',
        atoms='H:13 C:10 X:1',
        thermo=(NASA([100.00, 958.13],
                     [-1.99175339E-01,  5.92036841E-02,  7.95319528E-05,
                      -1.50923311E-07,  6.32287133E-11,  1.46238933E+04,
                       8.53306327E+00]),
                NASA([958.13, 5000.00],
                     [ 2.54829815E+01,  3.45437071E-02, -1.11103432E-05,
                       2.07701086E-09, -1.58288568E-13,  5.91307289E+03,
                      -1.34045294E+02])))

species(name=u'SX(900)',
        atoms='H:13 C:10 X:1',
        thermo=(NASA([100.00, 952.13],
                     [-2.49847327E-01,  6.12144299E-02,  7.49958111E-05,
                      -1.47032839E-07,  6.23174878E-11,  9.95287019E+03,
                       7.83789488E+00]),
                NASA([952.13, 5000.00],
                     [ 2.51514765E+01,  3.50977612E-02, -1.08320535E-05,
                       1.96574611E-09, -1.47965058E-13,  1.46249339E+03,
                      -1.32647586E+02])))

species(name=u'SX(901)',
        atoms='H:13 C:10 X:1',
        thermo=(NASA([100.00, 954.15],
                     [-2.41199686E-01,  5.81398326E-02,  8.76286779E-05,
                      -1.62794886E-07,  6.82890155E-11,  1.57403394E+04,
                       8.61338984E+00]),
                NASA([954.15, 5000.00],
                     [ 2.69109388E+01,  3.22137666E-02, -9.80038873E-06,
                       1.82964477E-09, -1.42127164E-13,  6.55757589E+03,
                      -1.42073507E+02])))

species(name=u'SX(902)',
        atoms='H:13 C:10 X:1',
        thermo=(NASA([100.00, 954.15],
                     [-2.41199686E-01,  5.81398326E-02,  8.76286779E-05,
                      -1.62794886E-07,  6.82890155E-11,  1.57403394E+04,
                       8.61338984E+00]),
                NASA([954.15, 5000.00],