units(length='cm', time='s', quantity='mol', act_energy='kcal/mol')

ideal_gas(name='gas',
          elements="H D T C Ci O Oi N Ne Ar He Si S Cl X",
          species="""n-heptane   Ar          He          Ne
                     N2          C2H4(2)     C4H8-1(3)   C4H8-2(4)
                     C4H6(7)     C6H8(9)     C3H6(32)    H2(68)
                     C8H10(123)  S(178)      S(194)      S(198)
                     S(309)      S(512)      S(608)      C7H8(967)
                     C5H8(1130)  S(1421)     S(1752)     S(1866)
                     S(1869)     C5H8(2087)""",
          reactions='gas-*',
          initial_state=state(temperature=300.0, pressure=OneAtm))

ideal_interface(name='surface1',
                elements="H D T C Ci O Oi N Ne Ar He Si S Cl X",
                species="""X(1)        HX(5)       C2H3X(37)   allylX(38)
                          CH3X(39)    C3H5X(45)   C4H5X(80)   C4H5X(81)
                          C6H9X(107)  C6H7X(142)  C6H7X(143)  C6H7X(144)
                          SX(206)     C6H7X(219)  SX(469)     SX(471)
                          SX(473)     SX(474)     SX(475)     SX(476)
                          SX(477)     SX(478)     SX(479)     SX(480)
                          SX(482)     C5H7X(611)  SX(615)     SX(616)
                          SX(619)     SX(620)     SX(624)     SX(868)
                          SX(869)     SX(870)     SX(871)     SX(872)
                          SX(873)     SX(874)     SX(875)     SX(876)
                          SX(877)     SX(878)     SX(879)     SX(880)
                          SX(903)     SX(907)     SX(912)     SX(915)
                          SX(916)     SX(922)     SX(925)     SX(954)
                          SX(956)     C5H7X(959)  SX(1019)    SX(1020)
                          SX(1124)    SX(1150)    SX(1151)    SX(1193)
                          SX(1194)    SX(1387)    SX(1396)    SX(1397)
                          SX(1402)    SX(1403)    SX(1404)    SX(1414)
                          SX(1465)    SX(1467)    SX(1824)    SX(1826)
                          SX(1827)    SX(1828)    SX(1829)    SX(2081)
                          SX(2166)    SX(2416)""",
                site_density=2.72e-09,
                phases="gas",
          reactions='surface1-*',
                initial_state=state(temperature=300.0, pressure=OneAtm))

#-------------------------------------------------------------------------------
# Element data
#-------------------------------------------------------------------------------

element(symbol=u'X', atomic_mass=195.083)
element(symbol=u'Ci', atomic_mass=13.003)
element(symbol=u'D', atomic_mass=2.014)
element(symbol=u'Oi', atomic_mass=18.0)
element(symbol=u'T', atomic_mass=3.016)
#-------------------------------------------------------------------------------
# Species data
#-------------------------------------------------------------------------------

species(name=u'n-heptane',
        atoms='H:16 C:7',
        thermo=(NASA([100.00, 1262.73],
                     [-2.91681405E-03,  7.69373649E-02, -3.48025563E-05,
                       1.86095180E-09,  2.01573617E-12, -2.57829342E+04,
                       3.00312148E+01]),
                NASA([1262.73, 5000.00],
                     [ 1.38377915E+01,  4.85945016E-02, -1.95474548E-05,
                       3.52837178E-09, -2.39064676E-13, -3.05141556E+04,
                      -4.48642836E+01])))

species(name=u'Ar',
        atoms='Ar:1',
        thermo=(NASA([200.00, 1000.00],
                     [ 2.50000000E+00,  0.00000000E+00,  0.00000000E+00,
                       0.00000000E+00,  0.00000000E+00, -7.45375000E+02,
                       4.37967000E+00]),
                NASA([1000.00, 6000.00],
                     [ 2.50000000E+00,  0.00000000E+00,  0.00000000E+00,
                       0.00000000E+00,  0.00000000E+00, -7.45375000E+02,
                       4.37967000E+00])))

species(name=u'He',
        atoms='He:1',
        thermo=(NASA([200.00, 1000.00],
                     [ 2.50000000E+00,  0.00000000E+00,  0.00000000E+00,
                       0.00000000E+00,  0.00000000E+00, -7.45375000E+02,
                       9.28724000E-01]),
                NASA([1000.00, 6000.00],
                     [ 2.50000000E+00,  0.00000000E+00,  0.00000000E+00,
                       0.00000000E+00,  0.00000000E+00, -7.45375000E+02,
                       9.28724000E-01])))

species(name=u'Ne',
        atoms='Ne:1',
        thermo=(NASA([200.00, 1000.00],
                     [ 2.50000000E+00,  0.00000000E+00,  0.00000000E+00,
                       0.00000000E+00,  0.00000000E+00, -7.45375000E+02,
                       3.35532000E+00]),
                NASA([1000.00, 6000.00],
                     [ 2.50000000E+00,  0.00000000E+00,  0.00000000E+00,
                       0.00000000E+00,  0.00000000E+00, -7.45375000E+02,
                       3.35532000E+00])))

species(name=u'N2',
        atoms='N:2',
        thermo=(NASA([200.00, 1000.00],
                     [ 3.53101000E+00, -1.23661000E-04, -5.02999000E-07,
                       2.43531000E-09, -1.40881000E-12, -1.04698000E+03,
                       2.96747000E+00]),
                NASA([1000.00, 6000.00],
                     [ 2.95258000E+00,  1.39690000E-03, -4.92632000E-07,
                       7.86010000E-11, -4.60755000E-15, -9.23949000E+02,
                       5.87189000E+00])))

species(name=u'C2H4(2)',
        atoms='H:4 C:2',
        thermo=(NASA([100.00, 979.36],
                     [ 3.97471606E+00, -4.75844285E-03,  4.16783770E-05,
                      -4.51392516E-08,  1.54224761E-11,  4.91540746E+03,
                       3.62430844E+00]),
                NASA([979.36, 5000.00],
                     [ 3.55660610E+00,  1.10627464E-02, -4.17019079E-06,
                       7.85586770E-10, -5.70060829E-14,  4.32046489E+03,
                       2.17719479E+00])))

species(name=u'C4H8-1(3)',
        atoms='H:8 C:4',
        thermo=(NASA([100.00, 1007.28],
                     [ 2.58772906E+00,  2.32777969E-02,  1.93412349E-05,
                      -3.55496333E-08,  1.36906009E-11, -1.91872926E+03,
                       1.45750618E+01]),
                NASA([1007.28, 5000.00],
                     [ 7.20517168E+00,  2.36361568E-02, -9.03150028E-06,
                       1.65392666E-09, -1.16019260E-13, -3.79733937E+03,
                      -1.24426257E+01])))

species(name=u'C4H8-2(4)',
        atoms='H:8 C:4',
        thermo=(NASA([100.00, 1157.79],
                     [ 2.51998327E+00,  2.76812799E-02,  9.43783469E-07,
                      -1.25009101E-08,  4.67144666E-12, -3.34374767E+03,
                       1.30195623E+01]),
                NASA([1157.79, 5000.00],
                     [ 6.04225708E+00,  2.60072350E-02, -1.04843374E-05,
                       1.90880922E-09, -1.30600505E-13, -4.86276511E+03,
                      -7.52715109E+00])))

species(name=u'C4H6(7)',
        atoms='H:6 C:4',
        thermo=(NASA([100.00, 946.05],
                     [ 2.80599310E+00,  1.02584471E-02,  6.17260255E-05,
                      -9.01642687E-08,  3.59116961E-11,  1.16584972E+04,
                       1.20621434E+01]),
                NASA([946.05, 5000.00],
                     [ 1.24693720E+01,  1.00553901E-02, -2.41206872E-06,
                       4.57077303E-10, -3.93160571E-14,  8.01077795E+03,
                      -4.36374720E+01])))

species(name=u'C6H8(9)',
        atoms='H:8 C:6',
        thermo=(NASA([100.00, 941.22],
                     [ 1.38427980E+00,  4.14411503E-02,  1.94287417E-05,
                      -6.16688700E-08,  2.86503633E-11,  1.76317461E+04,
                       1.93257509E+01]),
                NASA([941.22, 5000.00],
                     [ 1.69619680E+01,  1.57221707E-02, -4.10118367E-06,
                       6.95736344E-10, -5.26521484E-14,  1.29061672E+04,
                      -6.44097553E+01])))

species(name=u'C3H6(32)',
        atoms='H:6 C:3',
        thermo=(NASA([100.00, 983.75],
                     [ 3.31912102E+00,  8.17958674E-03,  3.34736123E-05,
                      -4.36193684E-08,  1.58213364E-11,  7.49325328E+02,
                       9.54025058E+00]),
                NASA([983.75, 5000.00],
                     [ 5.36755173E+00,  1.70743019E-02, -6.35107626E-06,
                       1.16619529E-09, -8.27620279E-14, -4.87138326E+02,
                      -4.54467529E+00])))

species(name=u'H2(68)',
        atoms='H:2',
        thermo=(NASA([100.00, 1959.08],
                     [ 3.43536412E+00,  2.12710353E-04, -2.78625043E-07,
                       3.40267167E-10, -7.76031998E-14, -1.03135984E+03,
                      -3.90841732E+00]),
                NASA([1959.08, 5000.00],
                     [ 2.78816583E+00,  5.87640942E-04,  1.59010417E-07,
                      -5.52739026E-11,  4.34310984E-15, -5.96144270E+02,
                       1.12732655E-01])))

species(name=u'C8H10(123)',
        atoms='H:10 C:8',
        thermo=(NASA([100.00, 941.38],
                     [ 8.64508879E-02,  6.59507123E-02,  1.49007776E-06,
                      -6.06862449E-08,  3.13845046E-11,  2.39088929E+04,
                       2.66192822E+01]),
                NASA([941.38, 5000.00],
                     [ 2.28417755E+01,  1.96704891E-02, -5.08803462E-06,
                       8.53682038E-10, -6.42382395E-14,  1.73909786E+04,
                      -9.36509497E+01])))

species(name=u'S(178)',
        atoms='H:14 C:10',
        thermo=(NASA([100.00, 1000.82],
                     [-6.31768052E-02,  6.63327958E-02,  3.52866104E-05,
                      -8.69374671E-08,  3.59821837E-11,  1.49219107E+04,
                       3.14585536E+01]),
                NASA([1000.82, 5000.00],
                     [ 1.83633542E+01,  4.74202731E-02, -1.83998113E-05,
                       3.46693133E-09, -2.49801392E-13,  8.49241227E+03,
                      -7.11484830E+01])))

species(name=u'S(194)',
        atoms='H:16 C:12',
        thermo=(NASA([100.00, 985.43],
                     [-1.88304682E+00,  1.07042194E-01, -2.70554103E-05,
                      -4.30549514E-08,  2.47781880E-11,  4.00783494E+04,
                       4.74620913E+01]),
                NASA([985.43, 5000.00],
                     [ 2.44922294E+01,  5.06805346E-02, -1.84366585E-05,
                       3.32433721E-09, -2.33631810E-13,  3.24185269E+04,
                      -9.18863874E+01])))

species(name=u'S(198)',
        atoms='H:16 C:12',
        thermo=(NASA([100.00, 992.45],
                     [-1.36726188E+00,  9.09276671E-02,  1.69902518E-05,
                      -8.53947805E-08,  3.84301239E-11,  2.11993195E+04,
                       3.87738109E+01]),
                NASA([992.45, 5000.00],
                     [ 2.42201531E+01,  5.14040751E-02, -1.94056379E-05,
                       3.62910452E-09, -2.61722320E-13,  1.29880616E+04,
                      -1.00257920E+02])))

species(name=u'S(309)',
        atoms='H:16 C:12',
        thermo=(NASA([100.00, 967.86],
                     [-1.32209228E+00,  8.47378361E-02,  4.59787499E-05,
                      -1.23781967E-07,  5.42497769E-11,  2.23199283E+04,
                       3.57020946E+01]),
                NASA([967.86, 5000.00],
                     [ 2.71811605E+01,  4.57697461E-02, -1.58000646E-05,
                       2.92345730E-09, -2.14846023E-13,  1.31102045E+04,
                      -1.19952912E+02])))

species(name=u'S(512)',
        atoms='H:16 C:12',
        thermo=(NASA([100.00, 977.34],
                     [-2.74599726E+00,  1.25928887E-01, -6.64324947E-05,
                      -1.47539612E-08,  1.77495764E-11,  2.62279978E+04,
                       4.47490324E+01]),
                NASA([977.34, 5000.00],
                     [ 3.01371331E+01,  4.17345099E-02, -1.45468655E-05,
                       2.60501155E-09, -1.84397085E-13,  1.73938944E+04,
                      -1.25450857E+02])))

species(name=u'S(608)',
        atoms='H:16 C:12',
        thermo=(NASA([100.00, 988.05],
                     [-9.90763460E-01,  7.49443568E-02,  7.30755660E-05,
                      -1.45592285E-07,  5.94752748E-11,  3.52111413E+04,
                       3.82242358E+01]),
                NASA([988.05, 5000.00],
                     [ 2.57482315E+01,  5.13983508E-02, -1.97708047E-05,
                       3.81948909E-09, -2.83266908E-13,  2.57927039E+04,
                      -1.11377296E+02])))

species(name=u'C7H8(967)',
        atoms='H:8 C:7',
        thermo=(NASA([100.00, 966.81],
                     [ 1.90138903E+00,  2.67868079E-02,  6.30523366E-05,
                      -9.95224287E-08,  3.94205761E-11,  1.54781489E+04,
                       1.80530900E+01]),
                NASA([966.81, 5000.00],
                     [ 1.41488720E+01,  2.45164605E-02, -8.51969957E-06,
                       1.61189695E-09, -1.20790154E-13,  1.08478608E+04,
                      -5.23192761E+01])))

species(name=u'C5H8(1130)',
        atoms='H:8 C:5',
        thermo=(NASA([100.00, 1049.25],
                     [ 2.01062155E+00,  3.15407187E-02,  2.07789480E-05,
                      -4.44088985E-08,  1.72419112E-11,  7.01383967E+03,
                       1.65768346E+01]),
                NASA([1049.25, 5000.00],
                     [ 1.14809937E+01,  2.45641673E-02, -1.08867259E-05,
                       2.16707025E-09, -1.59145781E-13,  3.42314914E+03,
                      -3.72078866E+01])))

species(name=u'S(1421)',
        atoms='H:16 C:12',
        thermo=(NASA([100.00, 990.56],
                     [-1.32892162E+00,  8.56175091E-02,  4.02422312E-05,
                      -1.13041663E-07,  4.85846312E-11,  2.10166900E+04,
                       3.92285904E+01]),
                NASA([990.56, 5000.00],
                     [ 2.63931502E+01,  4.91374623E-02, -1.87932792E-05,
                       3.60169126E-09, -2.65302821E-13,  1.18222932E+04,
                      -1.12939530E+02])))

species(name=u'S(1752)',
        atoms='H:14 C:10',
        thermo=(NASA([100.00, 971.20],
                     [-2.04845480E-02,  6.01795959E-02,  6.41085138E-05,
                      -1.25045744E-07,  5.16519091E-11,  1.60426214E+04,
                       2.83952673E+01]),
                NASA([971.20, 5000.00],
                     [ 2.12998282E+01,  4.18249981E-02, -1.48156747E-05,
                       2.76616216E-09, -2.03318196E-13,  8.62572638E+03,
                      -9.07037185E+01])))

species(name=u'S(1866)',
        atoms='H:12 C:8',
        thermo=(NASA([100.00, 1002.94],
                     [ 1.69489980E-02,  7.28189377E-02, -2.16585698E-05,
                      -2.40807783E-08,  1.44597041E-11,  1.38562447E+04,
                       3.07679077E+01]),
                NASA([1002.94, 5000.00],
                     [ 1.77276883E+01,  3.45993801E-02, -1.29781828E-05,
                       2.37500136E-09, -1.67643536E-13,  8.67334638E+03,
                      -6.28559377E+01])))

species(name=u'S(1869)',
        atoms='H:14 C:10',
        thermo=(NASA([100.00, 986.06],
                     [-1.44909215E+00,  1.01424899E-01, -4.84844562E-05,
                      -1.57983685E-08,  1.50673204E-11,  1.99508936E+04,
                       3.67659825E+01]),
                NASA([986.06, 5000.00],
                     [ 2.42859453E+01,  3.77392366E-02, -1.35336379E-05,
                       2.44095589E-09, -1.72311717E-13,  1.28965094E+04,
                      -9.70649724E+01])))

species(name=u'C5H8(2087)',
        atoms='H:8 C:5',
        thermo=(NASA([100.00, 1004.86],
                     [ 1.98273955E+00,  3.49998332E-02,  6.98515281E-06,
                      -3.05031334E-08,  1.32246652E-11,  6.96521034E+03,
                       1.60818191E+01]),
                NASA([1004.86, 5000.00],
                     [ 1.01246420E+01,  2.42323877E-02, -9.24886971E-06,
                       1.70115950E-09, -1.20059732E-13,  4.23624320E+03,
                      -2.86745770E+01])))

species(name=u'X(1)',
        atoms='X:1',
        thermo=(NASA([100.00, 1554.80],
                     [ 7.10139498E-03, -4.25619522E-05,  8.98533016E-08,
                      -7.80193649E-11,  2.32465471E-14, -8.76101712E-01,
                      -3.11211229E-02]),
                NASA([1554.80, 5000.00],
                     [ 1.60299900E-01, -2.52235409E-04,  1.14181275E-07,
                      -1.21471653E-11,  3.85790025E-16, -7.08100885E+01,
                      -9.09527530E-01])))

species(name=u'HX(5)',
        atoms='H:1 X:1',
        thermo=(NASA([100.00, 952.91],
                     [-3.80965452E-01,  5.47228709E-03,  2.60912778E-06,
                      -9.64961980E-09,  4.63946753E-12,  2.18196270E+03,
                       1.01725550E+00]),
                NASA([952.91, 5000.00],
                     [ 2.80339655E+00, -5.41047017E-04,  4.99507978E-07,
                      -7.54963647E-11,  3.06772366E-15,  1.24121328E+03,
                      -1.59436787E+01])))

species(name=u'C2H3X(37)',
        atoms='H:3 C:2 X:1',
        thermo=(NASA([100.00, 928.62],
                     [ 3.83091018E+00, -8.76381562E-03,  6.97956896E-05,
                      -8.67969174E-08,  3.33218121E-11,  6.67726531E+03,
                      -1.81151753E+01]),
                NASA([928.62, 5000.00],
                     [ 8.78054562E+00,  1.92497720E-03,  8.25825014E-07,
                      -1.63749818E-10,  5.71728318E-15,  4.37786219E+03,
                      -4.90588618E+01])))

species(name=u'allylX(38)',
        atoms='H:5 C:3 X:1',
        thermo=(NASA([100.00, 937.34],
                     [ 3.44148119E+00, -3.47700003E-03,  8.25933681E-05,
                      -1.05556823E-07,  4.04445066E-11,  3.13542718E+03,
                      -6.88846669E+00]),
                NASA([937.34, 5000.00],
                     [ 9.98148902E+00,  8.92268754E-03, -1.75442587E-06,
                       3.12285771E-10, -2.84156572E-14,  1.38629537E+02,
                      -4.74626902E+01])))

species(name=u'CH3X(39)',
        atoms='H:3 C:1 X:1',
        thermo=(NASA([100.00, 848.30],
                     [-1.21090496E+00,  2.92390681E-02, -4.49011079E-05,
                       3.86009808E-08, -1.30361041E-11, -1.04325133E+03,
                       6.80939750E+00]),
                NASA([848.30, 5000.00],
                     [ 1.62290877E+00,  1.12987268E-02, -5.08316908E-06,
                       9.46833581E-10, -6.42885536E-14, -1.35931623E+03,
                      -5.42501059E+00])))

species(name=u'C3H5X(45)',
        atoms='H:5 C:3 X:1',
        thermo=(NASA([100.00, 939.06],
                     [ 3.23683359E+00,  3.73132320E-03,  6.01028900E-05,
                      -8.16245569E-08,  3.18536011E-11,  2.86402371E+03,
                      -1.35295467E+01]),
                NASA([939.06, 5000.00],
                     [ 9.70183185E+00,  9.48309646E-03, -2.25953763E-06,
                       3.98431327E-10, -3.27118882E-14,  1.81994785E+02,
                      -5.21282869E+01])))

species(name=u'C4H5X(80)',
        atoms='H:5 C:4 X:1',
        thermo=(NASA([100.00, 936.52],
                     [ 2.68471723E+00,  1.36244496E-02,  5.32591849E-05,
                      -8.32912448E-08,  3.41499374E-11,  8.77049549E+03,
                      -1.06510487E+01]),
                NASA([936.52, 5000.00],
                     [ 1.29012266E+01,  8.96921861E-03, -1.71920076E-06,
                       2.89744517E-10, -2.58686364E-14,  5.14745655E+03,
                      -6.83963397E+01])))

species(name=u'C4H5X(81)',
        atoms='H:5 C:4 X:1',
        thermo=(NASA([100.00, 928.63],
                     [ 2.64232495E+00,  8.31109593E-03,  8.12146261E-05,
                      -1.21398701E-07,  4.98630759E-11,  1.39534043E+04,
                      -1.03932963E+01]),
                NASA([928.63, 5000.00],
                     [ 1.69490474E+01,  2.00818812E-03,  2.03468841E-06,
                      -4.02657023E-10,  1.85400094E-14,  8.91090988E+03,
                      -9.11990785E+01])))

species(name=u'C6H9X(107)',
        atoms='H:9 C:6 X:1',
        thermo=(NASA([100.00, 995.64],
                     [ 1.00158150E+00,  5.37831764E-02, -1.05077719E-05,
                      -2.52898569E-08,  1.36194364E-11,  1.54552710E+04,
                       4.73928304E+00]),
                NASA([995.64, 5000.00],
                     [ 1.48279675E+01,  2.56881420E-02, -9.53965888E-06,
                       1.75504791E-09, -1.24935257E-13,  1.13413460E+04,
                      -6.87379050E+01])))

species(name=u'C6H7X(142)',
        atoms='H:7 C:6 X:1',
        thermo=(NASA([100.00, 921.05],
                     [ 1.31110668E+00,  3.98923999E-02,  3.32232523E-05,
                      -8.35252706E-08,  3.86326964E-11,  1.37873915E+04,
                      -3.79723913E+00]),
                NASA([921.05, 5000.00],
                     [ 1.94238968E+01,  1.10879295E-02, -1.06296587E-06,
                       6.28490794E-11, -7.95124353E-15,  8.33608088E+03,
                      -1.01171530E+02])))

species(name=u'C6H7X(143)',
        atoms='H:7 C:6 X:1',
        thermo=(NASA([100.00, 937.50],
                     [ 1.68534221E+00,  3.10727778E-02,  5.20803235E-05,
                      -9.63157959E-08,  4.10725203E-11,  1.03875771E+04,
                      -3.14968750E+00]),
                NASA([937.50, 5000.00],
                     [ 1.71062754E+01,  1.56096156E-02, -3.71084904E-06,
                       6.25093623E-10, -4.95751867E-14,  5.28425302E+03,
                      -8.83483066E+01])))

species(name=u'C6H7X(144)',
        atoms='H:7 C:6 X:1',
        thermo=(NASA([100.00, 928.32],
                     [ 1.31534700E+00,  3.68783497E-02,  4.55986092E-05,
                      -9.88753118E-08,  4.43878511E-11,  1.95750466E+04,
                      -3.00645212E+00]),
                NASA([928.32, 5000.00],
                     [ 2.11711681E+01,  8.22309015E-03, -4.16967724E-08,
                      -7.09091221E-11, -2.30067666E-15,  1.34367677E+04,
                      -1.10527915E+02])))

species(name=u'SX(206)',
        atoms='H:11 C:8 X:1',
        thermo=(NASA([100.00, 958.98],
                     [-1.29640856E-01,  7.13781345E-02, -4.26954811E-06,
                      -5.28292768E-08,  2.74187184E-11,  1.95907453E+04,
                       9.83109352E+00]),
                NASA([958.98, 5000.00],
                     [ 2.17339898E+01,  2.72641222E-02, -8.91149767E-06,
                       1.59376980E-09, -1.15609653E-13,  1.32325044E+04,
                      -1.06020000E+02])))

species(name=u'C6H7X(219)',
        atoms='H:7 C:6 X:1',
        thermo=(NASA([100.00, 945.31],
                     [ 1.76545134E+00,  3.00643386E-02,  5.04823806E-05,
                      -9.18356912E-08,  3.86710488E-11,  2.18530402E+04,
                      -4.22047906E+00]),
                NASA([945.31, 5000.00],
                     [ 1.62876414E+01,  1.66989483E-02, -4.60790511E-06,
                       8.23797195E-10, -6.40998588E-14,  1.69590075E+04,
                      -8.48285150E+01])))

species(name=u'SX(469)',
        atoms='H:15 C:12 X:1',
        thermo=(NASA([100.00, 998.97],
                     [-8.99471708E-01,  7.61906300E-02,  6.22755405E-05,
                      -1.28403241E-07,  5.19561596E-11,  1.78535900E+04,
                       1.70460900E+01]),
                NASA([998.97, 5000.00],
                     [ 2.29677772E+01,  5.66231660E-02, -2.24612172E-05,
                       4.30391511E-09, -3.14023333E-13,  9.29290663E+03,
                      -1.17055355E+02])))

species(name=u'SX(471)',
        atoms='H:15 C:12 X:1',
        thermo=(NASA([100.00, 984.86],
                     [-1.25415917E+00,  8.14723399E-02,  5.99670849E-05,
                      -1.35047832E-07,  5.65263335E-11,  1.52651498E+04,
                       1.50885788E+01]),
                NASA([984.86, 5000.00],
                     [ 2.64955777E+01,  5.12028157E-02, -1.94857584E-05,
                       3.72553762E-09, -2.74703249E-13,  5.80132004E+03,
                      -1.38661398E+02])))

species(name=u'SX(473)',
        atoms='H:15 C:12 X:1',
        thermo=(NASA([100.00, 965.88],
                     [-9.39659596E-01,  7.09158013E-02,  8.81192599E-05,
                      -1.68466719E-07,  7.00250527E-11,  2.23907560E+04,
                       1.75963726E+01]),
                NASA([965.88, 5000.00],
                     [ 2.80707644E+01,  4.41051522E-02, -1.51840171E-05,
                       2.87430386E-09, -2.16535671E-13,  1.24331097E+04,
                      -1.43891561E+02])))

species(name=u'SX(474)',
        atoms='H:15 C:12 X:1',
        thermo=(NASA([100.00, 976.31],
                     [-1.37882584E+00,  8.72729725E-02,  3.54645112E-05,
                      -1.10989729E-07,  4.90790319E-11,  2.20255043E+04,
                       1.56116669E+01]),
                NASA([976.31, 5000.00],
                     [ 2.68030035E+01,  4.65647436E-02, -1.68432173E-05,
                       3.15349492E-09, -2.31121478E-13,  1.29599175E+04,
                      -1.37919629E+02])))

species(name=u'SX(475)',
        atoms='H:15 C:12 X:1',
        thermo=(NASA([100.00, 976.31],
                     [-1.37882584E+00,  8.72729725E-02,  3.54645112E-05,
                      -1.10989729E-07,  4.90790319E-11,  2.20255043E+04,
                       1.56116669E+01]),
                NASA([976.31, 5000.00],
                     [ 2.68030035E+01,  4.65647436E-02, -1.68432173E-05,
                       3.15349492E-09, -2.31121478E-13,  1.29599175E+04,
                      -1.37919629E+02])))

species(name=u'SX(476)',
        atoms='H:15 C:12 X:1',
        thermo=(NASA([100.00, 976.31],
                     [-1.37882584E+00,  8.72729725E-02,  3.54645112E-05,
                      -1.10989729E-07,  4.90790319E-11,  2.20255043E+04,
                       1.56116669E+01]),
                NASA([976.31, 5000.00],
                     [ 2.68030035E+01,  4.65647436E-02, -1.68432173E-05,
                       3.15349492E-09, -2.31121478E-13,  1.29599175E+04,
                      -1.37919629E+02])))

species(name=u'SX(477)',
        atoms='H:15 C:12 X:1',
        thermo=(NASA([100.00, 976.31],
                     [-1.37882584E+00,  8.72729725E-02,  3.54645112E-05,
                      -1.10989729E-07,  4.90790319E-11,  2.20255043E+04,
                       1.56116669E+01]),
                NASA([976.31, 5000.00],
                     [ 2.68030035E+01,  4.65647436E-02, -1.68432173E-05,
                       3.15349492E-09, -2.31121478E-13,  1.29599175E+04,
                      -1.37919629E+02])))

species(name=u'SX(478)',
        atoms='H:13 C:10 X:1',
        thermo=(NASA([100.00, 973.92],
                     [-1.15721286E-01,  6.16124415E-02,  6.18073389E-05,
                      -1.24242346E-07,  5.15732895E-11,  1.68644910E+04,
                       8.37236663E+00]),
                NASA([973.92, 5000.00],
                     [ 2.23163901E+01,  4.03455124E-02, -1.45804204E-05,
                       2.75621132E-09, -2.04039546E-13,  9.13424840E+03,
                      -1.16510889E+02])))

species(name=u'SX(479)',
        atoms='H:15 C:12 X:1',
        thermo=(NASA([100.00, 969.93],
                     [-1.42901548E+00,  8.92840294E-02,  3.08945489E-05,
                      -1.06998659E-07,  4.80954617E-11,  1.73544577E+04,
                       1.49144147E+01]),
                NASA([969.93, 5000.00],
                     [ 2.64408716E+01,  4.71691220E-02, -1.65932307E-05,
                       3.04879253E-09, -2.21334610E-13,  8.52276461E+03,
                      -1.36348449E+02])))

species(name=u'SX(480)',
        atoms='H:15 C:12 X:1',
        thermo=(NASA([100.00, 969.93],
                     [-1.42901548E+00,  8.92840294E-02,  3.08945489E-05,
                      -1.06998659E-07,  4.80954617E-11,  1.73544577E+04,
                       1.49144147E+01]),
                NASA([969.93, 5000.00],
                     [ 2.64408716E+01,  4.71691220E-02, -1.65932307E-05,
                       3.04879253E-09, -2.21334610E-13,  8.52276461E+03,
                      -1.36348449E+02])))

species(name=u'SX(482)',
        atoms='H:15 C:12 X:1',
        thermo=(NASA([100.00, 970.34],
                     [-1.41774466E+00,  8.61761971E-02,  4.36551332E-05,
                      -1.22944357E-07,  5.41540457E-11,  2.31418154E+04,
                       1.56806467E+01]),
                NASA([970.34, 5000.00],
                     [ 2.81969666E+01,  4.42913736E-02, -1.55653820E-05,
                       2.91362941E-09, -2.15576821E-13,  1.36190988E+04,
                      -1.45755724E+02])))

species(name=u'C5H7X(611)',
        atoms='H:7 C:5 X:1',
        thermo=(NASA([100.00, 955.26],
                     [ 2.14807862E+00,  2.30471639E-02,  5.52785985E-05,
                      -8.99888281E-08,  3.64764303E-11,  9.41463408E+03,
                      -3.16802051E-01]),
                NASA([955.26, 5000.00],
                     [ 1.41485498E+01,  1.72239138E-02, -5.33809619E-06,
                       9.99788941E-10, -7.72182082E-14,  5.09487818E+03,
                      -6.82727003E+01])))

species(name=u'SX(615)',
        atoms='H:11 C:8 X:1',
        thermo=(NASA([100.00, 971.40],
                     [ 1.41367486E-02,  6.90601635E-02, -2.81822772E-06,
                      -5.01495652E-08,  2.53088732E-11,  1.46820536E+04,
                       7.57445029E+00]),
                NASA([971.40, 5000.00],
                     [ 2.02696999E+01,  2.98290094E-02, -1.04553339E-05,
                       1.90870547E-09, -1.37813094E-13,  8.66253129E+03,
                      -1.00287409E+02])))

species(name=u'SX(616)',
        atoms='H:15 C:12 X:1',
        thermo=(NASA([100.00, 951.85],