units(length='cm', time='s', quantity='mol', act_energy='kcal/mol')

ideal_gas(name='gas',
          elements="H D T C Ci O Oi N Ne Ar He Si S Cl X",
          species="""n-heptane   Ar          He          Ne
                     N2          C2H4(2)     C4H8-1(3)   C4H8-2(4)
                     C4H6(7)     C3H6(32)    C2H6(110)   C4H10(113)
                     C6H10(119)  C6H12(124)  C6H12(137)  C6H12(151)
                     C6H12(164)  C4H8(175)   C6H12(181)  C8H12(264)
                     C3H8(274)   C6H14(285)  C8H16(286)  C8H14(294)
                     C8H18(295)  C6H14(306)  C8H18(316)  C4H10(326)
                     C6H12(327)  C6H14(332)  C8H18(342)  C8H18(343)
                     C6H12(497)  C6H14(501)  C8H18(511)  S(1062)
                     CH4(1066)   S(1843)     S(3242)     S(3260)
                     S(3373)     S(3502)     S(3504)     S(3561)
                     S(3562)     S(3632)     S(3820)     S(3917)
                     S(4072)     S(4556)     S(6222)     S(6223)
                     S(6232)     S(6702)""",
          transport='Mix',
          initial_state=state(temperature=300.0, pressure=OneAtm))

ideal_interface(name='surface1',
                elements="H D T C Ci O Oi N Ne Ar He Si S Cl X",
                species="""X(1)        HX(5)       C2H3X(37)   CH3X(39)
                          C2H5X(40)   C4H7X(41)   C4H7X(42)   C4H7X(43)
                          C4H7X(44)   C4H9X(64)   C4H9X(65)   C2H2X(70)
                          C6H11X(72)  C6H11X(73)  C4H5X(74)   C4H5X(81)
                          C6H9X(97)   C6H9X(98)   CH2X(105)   C2H4X(106)
                          SX(107)     SX(108)     SX(109)     C6H9X(121)
                          SX(129)     C6H9X(134)  C4H7X(142)  SX(143)
                          C4H6X(170)  SX(171)     C6H9X(178)  C6H9X(198)
                          C6H9X(256)  C3H7X(275)  SX(277)     C4H9X(296)
                          SX(299)     SX(303)     C4H9X(318)  C3H7X(320)
                          SX(322)     SX(329)     SX(362)     SX(364)
                          SX(446)     SX(493)     SX(536)     SX(537)
                          SX(545)     SX(546)     SX(606)     SX(608)
                          SX(623)     C6H9X(685)  SX(1064)    SX(1350)
                          SX(1352)    SX(1398)    SX(1431)    SX(1524)
                          SX(1580)    SX(1581)    SX(1631)    SX(1632)
                          SX(1685)    SX(1737)    SX(2120)    SX(2292)
                          SX(2293)    SX(2475)    CHX(3008)   CX(3034)
                          SX(3066)    SX(3162)    SX(3266)    SX(4002)
                          SX(4822)    SX(7389)    SX(7617)    SX(7730)""",
                site_density=2.72e-09,
                phases="gas",
          reactions='all',
                initial_state=state(temperature=300.0, pressure=OneAtm))

#-------------------------------------------------------------------------------
# Element data
#-------------------------------------------------------------------------------

element(symbol=u'X', atomic_mass=195.083)
element(symbol=u'Ci', atomic_mass=13.003)
element(symbol=u'D', atomic_mass=2.014)
element(symbol=u'Oi', atomic_mass=18.0)
element(symbol=u'T', atomic_mass=3.016)
#-------------------------------------------------------------------------------
# Species data
#-------------------------------------------------------------------------------

species(name=u'n-heptane',
        atoms='H:16 C:7',
        thermo=(NASA([100.00, 1262.73],
                     [-2.91681405E-03,  7.69373649E-02, -3.48025563E-05,
                       1.86095180E-09,  2.01573617E-12, -2.57829342E+04,
                       3.00312148E+01]),
                NASA([1262.73, 5000.00],
                     [ 1.38377915E+01,  4.85945016E-02, -1.95474548E-05,
                       3.52837178E-09, -2.39064676E-13, -3.05141556E+04,
                      -4.48642836E+01])),
        transport=gas_transport(geom='nonlinear',
                                diam=6.366,
                                well_depth=402.997))

species(name=u'Ar',
        atoms='Ar:1',
        thermo=(NASA([200.00, 1000.00],
                     [ 2.50000000E+00,  0.00000000E+00,  0.00000000E+00,
                       0.00000000E+00,  0.00000000E+00, -7.45375000E+02,
                       4.37967000E+00]),
                NASA([1000.00, 6000.00],
                     [ 2.50000000E+00,  0.00000000E+00,  0.00000000E+00,
                       0.00000000E+00,  0.00000000E+00, -7.45375000E+02,
                       4.37967000E+00])),
        transport=gas_transport(geom='atom',
                                diam=3.33,
                                well_depth=136.5))

species(name=u'He',
        atoms='He:1',
        thermo=(NASA([200.00, 1000.00],
                     [ 2.50000000E+00,  0.00000000E+00,  0.00000000E+00,
                       0.00000000E+00,  0.00000000E+00, -7.45375000E+02,
                       9.28724000E-01]),
                NASA([1000.00, 6000.00],
                     [ 2.50000000E+00,  0.00000000E+00,  0.00000000E+00,
                       0.00000000E+00,  0.00000000E+00, -7.45375000E+02,
                       9.28724000E-01])),
        transport=gas_transport(geom='atom',
                                diam=2.576,
                                well_depth=10.2))

species(name=u'Ne',
        atoms='Ne:1',
        thermo=(NASA([200.00, 1000.00],
                     [ 2.50000000E+00,  0.00000000E+00,  0.00000000E+00,
                       0.00000000E+00,  0.00000000E+00, -7.45375000E+02,
                       3.35532000E+00]),
                NASA([1000.00, 6000.00],
                     [ 2.50000000E+00,  0.00000000E+00,  0.00000000E+00,
                       0.00000000E+00,  0.00000000E+00, -7.45375000E+02,
                       3.35532000E+00])),
        transport=gas_transport(geom='atom',
                                diam=3.758,
                                well_depth=148.6))

species(name=u'N2',
        atoms='N:2',
        thermo=(NASA([200.00, 1000.00],
                     [ 3.53101000E+00, -1.23661000E-04, -5.02999000E-07,
                       2.43531000E-09, -1.40881000E-12, -1.04698000E+03,
                       2.96747000E+00]),
                NASA([1000.00, 6000.00],
                     [ 2.95258000E+00,  1.39690000E-03, -4.92632000E-07,
                       7.86010000E-11, -4.60755000E-15, -9.23949000E+02,
                       5.87189000E+00])),
        transport=gas_transport(geom='linear',
                                diam=3.621,
                                well_depth=97.53,
                                polar=1.76,
                                rot_relax=4.0))

species(name=u'C2H4(2)',
        atoms='H:4 C:2',
        thermo=(NASA([100.00, 979.36],
                     [ 3.97471606E+00, -4.75844285E-03,  4.16783770E-05,
                      -4.51392516E-08,  1.54224761E-11,  4.91540746E+03,
                       3.62430844E+00]),
                NASA([979.36, 5000.00],
                     [ 3.55660610E+00,  1.10627464E-02, -4.17019079E-06,
                       7.85586770E-10, -5.70060829E-14,  4.32046489E+03,
                       2.17719479E+00])),
        transport=gas_transport(geom='nonlinear',
                                diam=3.971,
                                well_depth=280.8,
                                rot_relax=1.5))

species(name=u'C4H8-1(3)',
        atoms='H:8 C:4',
        thermo=(NASA([100.00, 1007.28],
                     [ 2.58772906E+00,  2.32777969E-02,  1.93412349E-05,
                      -3.55496333E-08,  1.36906009E-11, -1.91872926E+03,
                       1.45750618E+01]),
                NASA([1007.28, 5000.00],
                     [ 7.20517168E+00,  2.36361568E-02, -9.03150028E-06,
                       1.65392666E-09, -1.16019260E-13, -3.79733937E+03,
                      -1.24426257E+01])),
        transport=gas_transport(geom='nonlinear',
                                diam=5.176,
                                well_depth=357.002,
                                rot_relax=1.0))

species(name=u'C4H8-2(4)',
        atoms='H:8 C:4',
        thermo=(NASA([100.00, 1157.79],
                     [ 2.51998327E+00,  2.76812799E-02,  9.43783469E-07,
                      -1.25009101E-08,  4.67144666E-12, -3.34374767E+03,
                       1.30195623E+01]),
                NASA([1157.79, 5000.00],
                     [ 6.04225708E+00,  2.60072350E-02, -1.04843374E-05,
                       1.90880922E-09, -1.30600505E-13, -4.86276511E+03,
                      -7.52715109E+00])),
        transport=gas_transport(geom='nonlinear',
                                diam=5.289,
                                well_depth=359.053))

species(name=u'C4H6(7)',
        atoms='H:6 C:4',
        thermo=(NASA([100.00, 946.05],
                     [ 2.80599310E+00,  1.02584471E-02,  6.17260255E-05,
                      -9.01642687E-08,  3.59116961E-11,  1.16584972E+04,
                       1.20621434E+01]),
                NASA([946.05, 5000.00],
                     [ 1.24693720E+01,  1.00553901E-02, -2.41206872E-06,
                       4.57077303E-10, -3.93160571E-14,  8.01077795E+03,
                      -4.36374720E+01])),
        transport=gas_transport(geom='nonlinear',
                                diam=5.18,
                                well_depth=357.002,
                                rot_relax=1.0))

species(name=u'C3H6(32)',
        atoms='H:6 C:3',
        thermo=(NASA([100.00, 983.75],
                     [ 3.31912102E+00,  8.17958674E-03,  3.34736123E-05,
                      -4.36193684E-08,  1.58213364E-11,  7.49325328E+02,
                       9.54025058E+00]),
                NASA([983.75, 5000.00],
                     [ 5.36755173E+00,  1.70743019E-02, -6.35107626E-06,
                       1.16619529E-09, -8.27620279E-14, -4.87138326E+02,
                      -4.54467529E+00])),
        transport=gas_transport(geom='nonlinear',
                                diam=4.982,
                                well_depth=266.801,
                                rot_relax=1.0))

species(name=u'C2H6(110)',
        atoms='H:6 C:2',
        thermo=(NASA([100.00, 1012.42],
                     [ 3.72239291E+00,  1.65083841E-03,  3.44175530E-05,
                      -3.76858229E-08,  1.24450657E-11, -1.15575901E+04,
                       4.68247999E+00]),
                NASA([1012.42, 5000.00],
                     [ 2.82848257E+00,  1.73040568E-02, -6.73334245E-06,
                       1.23742024E-09, -8.65676410E-14, -1.19978080E+04,
                       5.93811707E+00])),
        transport=gas_transport(geom='nonlinear',
                                diam=4.302,
                                well_depth=252.3,
                                rot_relax=1.5))

species(name=u'C4H10(113)',
        atoms='H:10 C:4',
        thermo=(NASA([100.00, 1147.60],
                     [ 2.16918413E+00,  3.43904632E-02, -1.61564236E-06,
                      -1.30726562E-08,  5.17350451E-12, -1.72505136E+04,
                       1.46546701E+01]),
                NASA([1147.60, 5000.00],
                     [ 6.78903089E+00,  3.03598162E-02, -1.21262050E-05,
                       2.19945025E-09, -1.50289312E-13, -1.91057969E+04,
                      -1.17329103E+01])),
        transport=gas_transport(geom='nonlinear',
                                diam=5.415,
                                well_depth=348.415))

species(name=u'C6H10(119)',
        atoms='H:10 C:6',
        thermo=(NASA([100.00, 1036.89],
                     [ 1.50874221E+00,  4.27939676E-02,  1.00407781E-05,
                      -3.76644958E-08,  1.56320088E-11,  7.74480595E+03,
                       2.33493905E+01]),
                NASA([1036.89, 5000.00],
                     [ 1.16601041E+01,  3.10397815E-02, -1.26024374E-05,
                       2.38495409E-09, -1.70150727E-13,  4.16633351E+03,
                      -3.30972272E+01])),
        transport=gas_transport(geom='nonlinear',
                                diam=5.648,
                                well_depth=385.401))

species(name=u'C6H12(124)',
        atoms='H:12 C:6',
        thermo=(NASA([100.00, 2065.44],
                     [ 1.68598658E+00,  5.58664307E-02, -2.53057821E-05,
                       3.98016615E-09, -6.94904807E-14, -7.81739466E+03,
                       2.09919882E+01]),
                NASA([2065.44, 5000.00],
                     [ 2.13486140E+01,  2.79136045E-02, -1.23596487E-05,
                       2.17527434E-09, -1.38347372E-13, -1.80997789E+04,
                      -9.33598720E+01])),
        transport=gas_transport(geom='nonlinear',
                                diam=5.851,
                                well_depth=385.248))

species(name=u'C6H12(137)',
        atoms='H:12 C:6',
        thermo=(NASA([100.00, 1018.92],
                     [ 1.21827324E+00,  4.88303598E-02,  8.49335826E-06,
                      -3.91899735E-08,  1.67107196E-11, -8.55522126E+03,
                       2.43074946E+01]),
                NASA([1018.92, 5000.00],
                     [ 1.16698119E+01,  3.59250755E-02, -1.39120664E-05,
                       2.55991991E-09, -1.79822160E-13, -1.21450086E+04,
                      -3.34751762E+01])),
        transport=gas_transport(geom='nonlinear',
                                diam=5.884,
                                well_depth=388.064))

species(name=u'C6H12(151)',
        atoms='H:12 C:6',
        thermo=(NASA([100.00, 1083.88],
                     [ 1.36789859E+00,  4.60332170E-02,  1.03872042E-05,
                      -3.61548644E-08,  1.41144370E-11, -9.21215455E+03,
                       2.36685346E+01]),
                NASA([1083.88, 5000.00],
                     [ 1.07762218E+01,  3.82405519E-02, -1.60946813E-05,
                       3.05489613E-09, -2.16276948E-13, -1.28334192E+04,
                      -2.97757608E+01])),
        transport=gas_transport(geom='nonlinear',
                                diam=5.876,
                                well_depth=387.836))

species(name=u'C6H12(164)',
        atoms='H:12 C:6',
        thermo=(NASA([100.00, 1839.14],
                     [ 7.39766525E-01,  6.35836379E-02, -3.85035731E-05,
                       1.16726754E-08, -1.43915861E-12, -9.53996498E+03,
                       2.35193792E+01]),
                NASA([1839.14, 5000.00],
                     [ 1.56639911E+01,  3.11245214E-02, -1.20299805E-05,
                       2.07631491E-09, -1.34696441E-13, -1.50295162E+04,
                      -5.75746881E+01])),
        transport=gas_transport(geom='nonlinear',
                                diam=5.925,
                                well_depth=395.365))

species(name=u'C4H8(175)',
        atoms='H:8 C:4',
        thermo=(NASA([100.00, 1061.33],
                     [ 2.52504770E+00,  2.64752782E-02,  7.08359238E-06,
                      -2.07731462E-08,  8.00430055E-12, -4.02607130E+03,
                       1.28857274E+01]),
                NASA([1061.33, 5000.00],
                     [ 6.48672669E+00,  2.49943921E-02, -9.83283171E-06,
                       1.79343299E-09, -1.24008235E-13, -5.62452310E+03,
                      -1.00316397E+01])),
        transport=gas_transport(geom='nonlinear',
                                diam=5.238,
                                well_depth=351.146))

species(name=u'C6H12(181)',
        atoms='H:12 C:6',
        thermo=(NASA([100.00, 3144.72],
                     [ 1.62486600E+00,  5.81706891E-02, -2.94074668E-05,
                       6.41453677E-09, -5.27511383E-13, -9.95070725E+03,
                       2.05730324E+01]),
                NASA([3144.72, 5000.00],
                     [ 2.63049846E+01,  2.09689465E-02, -8.89163385E-06,
                       1.47783715E-09, -8.83519412E-14, -2.26006402E+04,
                      -1.22203751E+02])),
        transport=gas_transport(geom='nonlinear',
                                diam=5.876,
                                well_depth=387.836))

species(name=u'C8H12(264)',
        atoms='H:12 C:8',
        thermo=(NASA([100.00, 1002.94],
                     [ 1.69489980E-02,  7.28189377E-02, -2.16585698E-05,
                      -2.40807783E-08,  1.44597041E-11,  1.38562447E+04,
                       3.07679077E+01]),
                NASA([1002.94, 5000.00],
                     [ 1.77276883E+01,  3.45993801E-02, -1.29781828E-05,
                       2.37500136E-09, -1.67643536E-13,  8.67334638E+03,
                      -6.28559377E+01])),
        transport=gas_transport(geom='nonlinear',
                                diam=6.098,
                                well_depth=423.433))

species(name=u'C3H8(274)',
        atoms='H:8 C:3',
        thermo=(NASA([100.00, 989.99],
                     [ 3.06336167E+00,  1.29214561E-02,  3.47032808E-05,
                      -4.70946154E-08,  1.71384141E-11, -1.43905789E+04,
                       1.07835592E+01]),
                NASA([989.99, 5000.00],
                     [ 5.60440043E+00,  2.19528785E-02, -8.22080610E-06,
                       1.50103993E-09, -1.05635358E-13, -1.58394038E+04,
                      -6.22623300E+00])),
        transport=gas_transport(geom='nonlinear',
                                diam=4.982,
                                well_depth=266.801,
                                rot_relax=1.0))

species(name=u'C6H14(285)',
        atoms='H:14 C:6',
        thermo=(NASA([100.00, 1048.16],
                     [ 8.83603407E-01,  5.70449582E-02, -2.15511769E-06,
                      -2.85512365E-08,  1.26618641E-11, -2.27982664E+04,
                       2.50352381E+01]),
                NASA([1048.16, 5000.00],
                     [ 1.11354266E+01,  4.25244017E-02, -1.65829595E-05,
                       3.01864905E-09, -2.09013581E-13, -2.62988561E+04,
                      -3.13529752E+01])),
        transport=gas_transport(geom='nonlinear',
                                diam=6.051,
                                well_depth=385.187))

species(name=u'C8H16(286)',
        atoms='H:16 C:8',
        thermo=(NASA([100.00, 1248.81],
                     [-4.26647485E-01,  8.49512374E-02, -4.26977778E-05,
                       5.19306335E-09,  1.55005691E-12, -1.32580173E+04,
                       3.49638273E+01]),
                NASA([1248.81, 5000.00],
                     [ 1.57326579E+01,  4.96311262E-02, -2.00187569E-05,
                       3.62701466E-09, -2.46632049E-13, -1.85758476E+04,
                      -5.17182159E+01])),
        transport=gas_transport(geom='nonlinear',
                                diam=6.48,
                                well_depth=420.524))

species(name=u'C8H14(294)',
        atoms='H:14 C:8',
        thermo=(NASA([100.00, 1031.59],
                     [-3.24308169E-01,  8.09803459E-02, -3.24425386E-05,
                      -1.31536671E-08,  1.01843255E-11, -1.50090156E+03,
                       3.15196958E+01]),
                NASA([1031.59, 5000.00],
                     [ 1.73697073E+01,  4.09232311E-02, -1.57129317E-05,
                       2.86474556E-09, -1.99759457E-13, -6.67068809E+03,
                      -6.17573781E+01])),
        transport=gas_transport(geom='nonlinear',
                                diam=6.303,
                                well_depth=423.151))

species(name=u'C8H18(295)',
        atoms='H:18 C:8',
        thermo=(NASA([100.00, 1950.39],
                     [-8.85253472E-01,  9.40525134E-02, -5.49401942E-05,
                       1.58319910E-08, -1.84186830E-12, -2.86089074E+04,
                       3.54764932E+01]),
                NASA([1950.39, 5000.00],
                     [ 2.30699897E+01,  4.49237816E-02, -1.71567286E-05,
                       2.91725571E-09, -1.86477663E-13, -3.79533974E+04,
                      -9.60967099E+01])),
        transport=gas_transport(geom='nonlinear',
                                diam=6.679,
                                well_depth=420.525))

species(name=u'C6H14(306)',
        atoms='H:14 C:6',
        thermo=(NASA([100.00, 1237.11],
                     [ 9.36204265E-01,  5.80630250E-02, -1.05197660E-05,
                      -1.36320323E-08,  5.73438090E-12, -2.34249411E+04,
                       2.40002576E+01]),
                NASA([1237.11, 5000.00],
                     [ 1.03159905E+01,  4.66440696E-02, -1.96015321E-05,
                       3.61730433E-09, -2.48224262E-13, -2.71926741E+04,
                      -2.90957696E+01])),
        transport=gas_transport(geom='nonlinear',
                                diam=6.083,
                                well_depth=387.9))

species(name=u'C8H18(316)',
        atoms='H:18 C:8',
        thermo=(NASA([100.00, 1206.86],
                     [-6.89609402E-01,  8.98708288E-02, -4.11358366E-05,
                       1.16625302E-09,  3.08116522E-12, -2.88987652E+04,
                       3.51508275E+01]),
                NASA([1206.86, 5000.00],
                     [ 1.56711370E+01,  5.50966005E-02, -2.20915345E-05,
                       4.00127562E-09, -2.72607063E-13, -3.42643584E+04,
                      -5.27253224E+01])),
        transport=gas_transport(geom='nonlinear',
                                diam=6.711,
                                well_depth=423.08))

species(name=u'C4H10(326)',
        atoms='H:10 C:4',
        thermo=(NASA([100.00, 987.08],
                     [ 2.18594095E+00,  3.04312883E-02,  1.83387931E-05,
                      -4.04090927E-08,  1.64481872E-11, -1.82080408E+04,
                       1.37947641E+01]),
                NASA([987.08, 5000.00],
                     [ 8.84811268E+00,  2.61183046E-02, -9.57929598E-06,
                       1.72895160E-09, -1.21006821E-13, -2.06283634E+04,
                      -2.38575760E+01])),
        transport=gas_transport(geom='nonlinear',
                                diam=5.448,
                                well_depth=351.237))

species(name=u'C6H12(327)',
        atoms='H:12 C:6',
        thermo=(NASA([100.00, 727.96],
                     [ 9.39440133E-01,  7.36827282E-02, -7.88408848E-05,
                       6.61457863E-08, -2.57040766E-11, -8.86666114E+03,
                       2.10074400E+01]),
                NASA([727.96, 5000.00],
                     [ 3.15400112E+00,  5.47777314E-02, -2.60055290E-05,
                       5.04732853E-09, -3.55800709E-13, -9.01059211E+03,
                       1.22525714E+01])),
        transport=gas_transport(geom='nonlinear',
                                diam=5.884,
                                well_depth=388.064))

species(name=u'C6H14(332)',
        atoms='H:14 C:6',
        thermo=(NASA([100.00, 1002.79],
                     [ 9.62511884E-01,  5.35099673E-02,  1.32037900E-05,
                      -4.70268617E-08,  1.98557427E-11, -2.36936864E+04,
                       2.41377511E+01]),
                NASA([1002.79, 5000.00],
                     [ 1.14867705E+01,  4.22488291E-02, -1.59010927E-05,
                       2.87000033E-09, -1.99356317E-13, -2.73489440E+04,
                      -3.43661848E+01])),
        transport=gas_transport(geom='nonlinear',
                                diam=6.083,
                                well_depth=387.9))

species(name=u'C8H18(342)',
        atoms='H:18 C:8',
        thermo=(NASA([100.00, 1206.86],
                     [-6.89609402E-01,  8.98708288E-02, -4.11358366E-05,
                       1.16625302E-09,  3.08116522E-12, -2.93013403E+04,
                       3.44576804E+01]),
                NASA([1206.86, 5000.00],
                     [ 1.56711370E+01,  5.50966005E-02, -2.20915345E-05,
                       4.00127562E-09, -2.72607063E-13, -3.46669336E+04,
                      -5.34184695E+01])),
        transport=gas_transport(geom='nonlinear',
                                diam=6.711,
                                well_depth=423.08))

species(name=u'C8H18(343)',
        atoms='H:18 C:8',
        thermo=(NASA([100.00, 1103.64],
                     [-5.78595688E-01,  8.63233750E-02, -2.81114488E-05,
                      -1.40871769E-08,  8.76045900E-12, -2.95864558E+04,
                       3.37703392E+01]),
                NASA([1103.64, 5000.00],
                     [ 1.53084896E+01,  5.52866759E-02, -2.20051288E-05,
                       4.01682589E-09, -2.77031625E-13, -3.47097411E+04,
                      -5.17661085E+01])),
        transport=gas_transport(geom='nonlinear',
                                diam=6.744,
                                well_depth=425.737))

species(name=u'C6H12(497)',
        atoms='H:12 C:6',
        thermo=(NASA([100.00, 1083.88],
                     [ 1.36789859E+00,  4.60332170E-02,  1.03872042E-05,
                      -3.61548644E-08,  1.41144370E-11, -9.74154091E+03,
                       1.94334438E+01]),
                NASA([1083.88, 5000.00],
                     [ 1.07762218E+01,  3.82405519E-02, -1.60946813E-05,
                       3.05489613E-09, -2.16276948E-13, -1.33628055E+04,
                      -3.40108516E+01])),
        transport=gas_transport(geom='nonlinear',
                                diam=5.928,
                                well_depth=391.724))

species(name=u'C6H14(501)',
        atoms='H:14 C:6',
        thermo=(NASA([100.00, 999.60],
                     [ 1.13914864E+00,  5.18713751E-02,  1.51948225E-05,
                      -4.44277431E-08,  1.80491646E-11, -2.48256356E+04,
                       2.08096782E+01]),
                NASA([999.60, 5000.00],
                     [ 8.28885191E+00,  4.86579196E-02, -1.80934696E-05,
                       3.19040633E-09, -2.16940675E-13, -2.75238301E+04,
                      -2.00273110E+01])),
        transport=gas_transport(geom='nonlinear',
                                diam=6.127,
                                well_depth=391.366))

species(name=u'C8H18(511)',
        atoms='H:18 C:8',
        thermo=(NASA([100.00, 1100.04],
                     [-7.32832528E-01,  8.82674786E-02, -2.75778060E-05,
                      -1.74171002E-08,  1.02557589E-11, -3.03452636E+04,
                       3.15057124E+01]),
                NASA([1100.04, 5000.00],
                     [ 1.69619925E+01,  5.40401412E-02, -2.19705259E-05,
                       4.07147661E-09, -2.83725073E-13, -3.60603627E+04,
                      -6.38306892E+01])),
        transport=gas_transport(geom='nonlinear',
                                diam=6.753,
                                well_depth=426.309))

species(name=u'S(1062)',
        atoms='H:12 C:5',
        thermo=(NASA([100.00, 1035.89],
                     [ 1.72369892E+00,  4.01626686E-02,  1.63603121E-05,
                      -3.88326196E-08,  1.49780300E-11, -2.08560016E+04,
                       1.91510657E+01]),
                NASA([1035.89, 5000.00],
                     [ 7.87936773E+00,  3.91979316E-02, -1.52647178E-05,
                       2.77213157E-09, -1.91665486E-13, -2.33548825E+04,
                      -1.66693711E+01])),
        transport=gas_transport(geom='nonlinear',
                                diam=5.767,
                                well_depth=369.796))

species(name=u'CH4(1066)',
        atoms='H:4 C:1',
        thermo=(NASA([100.00, 1084.12],
                     [ 4.20541524E+00, -5.35557362E-03,  2.51123265E-05,
                      -2.13762843E-08,  5.97523937E-12, -1.01619433E+04,
                      -9.21279283E-01]),
                NASA([1084.12, 5000.00],
                     [ 9.08265721E-01,  1.14540858E-02, -4.57173828E-06,
                       8.29191671E-10, -5.66314895E-14, -9.71997444E+03,
                       1.39930944E+01])),
        transport=gas_transport(geom='nonlinear',
                                diam=3.746,
                                well_depth=141.4,
                                polar=2.6,
                                rot_relax=13.0))

species(name=u'S(1843)',
        atoms='H:12 C:6',
        thermo=(NASA([100.00, 1083.88],
                     [ 1.36789859E+00,  4.60332170E-02,  1.03872042E-05,
                      -3.61548644E-08,  1.41144370E-11, -9.87388749E+03,
                       2.31436772E+01]),
                NASA([1083.88, 5000.00],
                     [ 1.07762218E+01,  3.82405519E-02, -1.60946813E-05,
                       3.05489613E-09, -2.16276948E-13, -1.34951521E+04,
                      -3.03006182E+01])),
        transport=gas_transport(geom='nonlinear',
                                diam=5.909,
                                well_depth=390.747))

species(name=u'S(3242)',
        atoms='H:16 C:7',
        thermo=(NASA([100.00, 1120.69],
                     [ 1.06339491E-01,  7.34420479E-02, -2.20939297E-05,
                      -1.28197435E-08,  7.39373087E-12, -2.64706183E+04,
                       2.93479113E+01]),
                NASA([1120.69, 5000.00],
                     [ 1.31589528E+01,  4.92569317E-02, -1.97080319E-05,
                       3.59805544E-09, -2.47725029E-13, -3.08030385E+04,
                      -4.13873017E+01])),
        transport=gas_transport(geom='nonlinear',
                                diam=6.398,
                                well_depth=405.635))

species(name=u'S(3260)',
        atoms='H:16 C:7',
        thermo=(NASA([100.00, 1120.69],
                     [ 1.06339491E-01,  7.34420479E-02, -2.20939297E-05,
                      -1.28197435E-08,  7.39373087E-12, -2.60680432E+04,
                       3.00410584E+01]),
                NASA([1120.69, 5000.00],
                     [ 1.31589528E+01,  4.92569317E-02, -1.97080319E-05,
                       3.59805544E-09, -2.47725029E-13, -3.04004633E+04,
                      -4.06941546E+01])),
        transport=gas_transport(geom='nonlinear',