units(length='cm', time='s', quantity='mol', act_energy='kcal/mol')

ideal_gas(name='gas',
          elements="H D T C Ci O Oi N Ne Ar He Si S Cl X",
          species="""n-heptane   Ar          He          Ne
                     N2          C2H4(2)     C4H8-1(3)   C4H8-2(4)
                     C4H6(7)     C6H8(9)     C3H6(32)    H2(68)
                     C8H10(113)  S(181)      S(185)      S(309)
                     S(749)      C7H8(953)   C5H8(1116)  S(1358)
                     S(1365)     S(1635)     C5H8(1857)  CH4(2396)""",
          reactions='gas-*',
          initial_state=state(temperature=300.0, pressure=OneAtm))

ideal_interface(name='surface1',
                elements="H D T C Ci O Oi N Ne Ar He Si S Cl X",
                species="""X(1)        HX(5)       C2H3X(37)   allylX(38)
                          CH3X(39)    C4H7X(42)   C3H5X(45)   C4H5X(80)
                          C4H5X(81)   C6H9X(97)   C6H7X(132)  C6H7X(133)
                          C6H7X(134)  C6H9X(192)  SX(197)     SX(219)
                          SX(223)     C6H7X(233)  SX(469)     SX(471)
                          SX(472)     SX(473)     SX(474)     SX(475)
                          SX(476)     SX(477)     SX(481)     SX(482)
                          C8H9X(533)  C8H9X(534)  C8H9X(535)  C8H9X(536)
                          SX(710)     SX(711)     SX(712)     SX(713)
                          SX(714)     SX(715)     SX(716)     SX(722)
                          SX(825)     C6H9X(826)  SX(827)     SX(828)
                          SX(829)     SX(830)     SX(831)     SX(832)
                          SX(833)     SX(834)     SX(883)     SX(901)
                          SX(905)     SX(906)     SX(918)     SX(919)
                          SX(940)     SX(942)     C5H7X(945)  SX(1005)
                          SX(1006)    SX(1010)    SX(1110)    SX(1136)
                          SX(1241)    SX(1279)    SX(1286)    SX(1287)
                          SX(1292)    SX(1293)    SX(1294)    SX(1351)
                          SX(1415)    SX(1416)    SX(1418)    SX(1419)
                          SX(1547)    SX(1549)    SX(1550)    SX(1683)
                          SX(1798)    SX(2150)    SX(2442)    SX(2537)
                          SX(2941)    SX(2944)""",
                site_density=2.72e-09,
                phases="gas",
          reactions='surface1-*',
                initial_state=state(temperature=300.0, pressure=OneAtm))

#-------------------------------------------------------------------------------
# Element data
#-------------------------------------------------------------------------------

element(symbol=u'X', atomic_mass=195.083)
element(symbol=u'Ci', atomic_mass=13.003)
element(symbol=u'D', atomic_mass=2.014)
element(symbol=u'Oi', atomic_mass=18.0)
element(symbol=u'T', atomic_mass=3.016)
#-------------------------------------------------------------------------------
# Species data
#-------------------------------------------------------------------------------

species(name=u'n-heptane',
        atoms='H:16 C:7',
        thermo=(NASA([100.00, 1262.75],
                     [-2.93512125E-03,  7.69375610E-02, -3.48031525E-05,
                       1.86160506E-09,  2.01550529E-12, -2.57829334E+04,
                       3.00312819E+01]),
                NASA([1262.75, 5000.00],
                     [ 1.38379971E+01,  4.85941816E-02, -1.95472819E-05,
                       3.52833289E-09, -2.39061569E-13, -3.05142526E+04,
                      -4.48654615E+01])))

species(name=u'Ar',
        atoms='Ar:1',
        thermo=(NASA([200.00, 1000.00],
                     [ 2.50000000E+00,  0.00000000E+00,  0.00000000E+00,
                       0.00000000E+00,  0.00000000E+00, -7.45375000E+02,
                       4.37967000E+00]),
                NASA([1000.00, 6000.00],
                     [ 2.50000000E+00,  0.00000000E+00,  0.00000000E+00,
                       0.00000000E+00,  0.00000000E+00, -7.45375000E+02,
                       4.37967000E+00])))

species(name=u'He',
        atoms='He:1',
        thermo=(NASA([200.00, 1000.00],
                     [ 2.50000000E+00,  0.00000000E+00,  0.00000000E+00,
                       0.00000000E+00,  0.00000000E+00, -7.45375000E+02,
                       9.28724000E-01]),
                NASA([1000.00, 6000.00],
                     [ 2.50000000E+00,  0.00000000E+00,  0.00000000E+00,
                       0.00000000E+00,  0.00000000E+00, -7.45375000E+02,
                       9.28724000E-01])))

species(name=u'Ne',
        atoms='Ne:1',
        thermo=(NASA([200.00, 1000.00],
                     [ 2.50000000E+00,  0.00000000E+00,  0.00000000E+00,
                       0.00000000E+00,  0.00000000E+00, -7.45375000E+02,
                       3.35532000E+00]),
                NASA([1000.00, 6000.00],
                     [ 2.50000000E+00,  0.00000000E+00,  0.00000000E+00,
                       0.00000000E+00,  0.00000000E+00, -7.45375000E+02,
                       3.35532000E+00])))

species(name=u'N2',
        atoms='N:2',
        thermo=(NASA([200.00, 1000.00],
                     [ 3.53101000E+00, -1.23661000E-04, -5.02999000E-07,
                       2.43531000E-09, -1.40881000E-12, -1.04698000E+03,
                       2.96747000E+00]),
                NASA([1000.00, 6000.00],
                     [ 2.95258000E+00,  1.39690000E-03, -4.92632000E-07,
                       7.86010000E-11, -4.60755000E-15, -9.23949000E+02,
                       5.87189000E+00])))

species(name=u'C2H4(2)',
        atoms='H:4 C:2',
        thermo=(NASA([100.00, 979.37],
                     [ 3.97469045E+00, -4.75813325E-03,  4.16772624E-05,
                      -4.51377676E-08,  1.54218287E-11,  4.91540855E+03,
                       3.62439976E+00]),
                NASA([979.37, 5000.00],
                     [ 3.55670229E+00,  1.10625819E-02, -4.17009559E-06,
                       7.85564219E-10, -5.70042086E-14,  4.32042473E+03,
                       2.17665377E+00])))

species(name=u'C4H8-1(3)',
        atoms='H:8 C:4',
        thermo=(NASA([100.00, 1007.28],
                     [ 2.58772978E+00,  2.32777883E-02,  1.93412653E-05,
                      -3.55496729E-08,  1.36906178E-11, -1.91872929E+03,
                       1.45750592E+01]),
                NASA([1007.28, 5000.00],
                     [ 7.20516863E+00,  2.36361619E-02, -9.03150325E-06,
                       1.65392736E-09, -1.16019318E-13, -3.79733809E+03,
                      -1.24426086E+01])))

species(name=u'C4H8-2(4)',
        atoms='H:8 C:4',
        thermo=(NASA([100.00, 1157.78],
                     [ 2.51999305E+00,  2.76811707E-02,  9.44135366E-07,
                      -1.25013222E-08,  4.67160311E-12, -3.34374810E+03,
                       1.30195268E+01]),
                NASA([1157.78, 5000.00],
                     [ 6.04218222E+00,  2.60073554E-02, -1.04844041E-05,
                       1.90882450E-09, -1.30601743E-13, -4.86273126E+03,
                      -7.52672501E+00])))

species(name=u'C4H6(7)',
        atoms='H:6 C:4',
        thermo=(NASA([100.00, 946.05],
                     [ 2.80594317E+00,  1.02590609E-02,  6.17237648E-05,
                      -9.01611778E-08,  3.59103084E-11,  1.16584993E+04,
                       1.20623208E+01]),
                NASA([946.05, 5000.00],
                     [ 1.24695345E+01,  1.00551088E-02, -2.41190446E-06,
                       4.57038145E-10, -3.93127871E-14,  8.01071120E+03,
                      -4.36383840E+01])))

species(name=u'C6H8(9)',
        atoms='H:8 C:6',
        thermo=(NASA([100.00, 941.22],
                     [ 1.38427839E+00,  4.14411676E-02,  1.94286778E-05,
                      -6.16687823E-08,  2.86503237E-11,  1.76317462E+04,
                       1.93257559E+01]),
                NASA([941.22, 5000.00],
                     [ 1.69619725E+01,  1.57221629E-02, -4.10117912E-06,
                       6.95735258E-10, -5.26520576E-14,  1.29061653E+04,
                      -6.44097805E+01])))

species(name=u'C3H6(32)',
        atoms='H:6 C:3',
        thermo=(NASA([100.00, 983.75],
                     [ 3.31912202E+00,  8.17957465E-03,  3.34736557E-05,
                      -4.36194260E-08,  1.58213614E-11,  7.49325285E+02,
                       9.54024700E+00]),
                NASA([983.75, 5000.00],
                     [ 5.36754789E+00,  1.70743084E-02, -6.35108004E-06,
                       1.16619619E-09, -8.27621023E-14, -4.87136723E+02,
                      -4.54465373E+00])))

species(name=u'H2(68)',
        atoms='H:2',
        thermo=(NASA([100.00, 1959.08],
                     [ 3.43536411E+00,  2.12710383E-04, -2.78625110E-07,
                       3.40267219E-10, -7.76032129E-14, -1.03135984E+03,
                      -3.90841731E+00]),
                NASA([1959.08, 5000.00],
                     [ 2.78816619E+00,  5.87640475E-04,  1.59010635E-07,
                      -5.52739465E-11,  4.34311304E-15, -5.96144481E+02,
                       1.12730527E-01])))

species(name=u'C8H10(113)',
        atoms='H:10 C:8',
        thermo=(NASA([100.00, 941.39],
                     [ 8.64066480E-02,  6.59512573E-02,  1.48806368E-06,
                      -6.06834808E-08,  3.13832585E-11,  2.39088947E+04,
                       2.66194394E+01]),
                NASA([941.39, 5000.00],
                     [ 2.28419165E+01,  1.96702446E-02, -5.08789164E-06,
                       8.53647924E-10, -6.42353888E-14,  1.73909208E+04,
                      -9.36517408E+01])))

species(name=u'S(181)',
        atoms='H:16 C:12',
        thermo=(NASA([100.00, 985.43],
                     [-1.88309559E+00,  1.07042782E-01, -2.70575175E-05,
                      -4.30521591E-08,  2.47769762E-11,  4.00783515E+04,
                       4.74622652E+01]),
                NASA([985.43, 5000.00],
                     [ 2.44924173E+01,  5.06802141E-02, -1.84364732E-05,
                       3.32429337E-09, -2.33628170E-13,  3.24184482E+04,
                      -9.18874447E+01])))

species(name=u'S(185)',
        atoms='H:16 C:12',
        thermo=(NASA([100.00, 992.46],
                     [-1.36729922E+00,  9.09281156E-02,  1.69886510E-05,
                      -8.53926708E-08,  3.84292138E-11,  2.11993211E+04,
                       3.87739443E+01]),
                NASA([992.46, 5000.00],
                     [ 2.42203013E+01,  5.14038229E-02, -1.94054924E-05,
                       3.62907015E-09, -2.61719468E-13,  1.29879994E+04,
                      -1.00258754E+02])))

species(name=u'S(309)',
        atoms='H:16 C:12',
        thermo=(NASA([100.00, 967.86],
                     [-1.32199649E+00,  8.47366715E-02,  4.59829753E-05,
                      -1.23787643E-07,  5.42522776E-11,  2.23199242E+04,
                       3.57017535E+01]),
                NASA([967.86, 5000.00],
                     [ 2.71808180E+01,  4.57703342E-02, -1.58004061E-05,
                       2.92353835E-09, -2.14852771E-13,  1.31103467E+04,
                      -1.19950987E+02])))

species(name=u'S(749)',
        atoms='H:14 C:10',
        thermo=(NASA([100.00, 988.70],
                     [-1.28102806E+00,  9.73401841E-02, -3.96908232E-05,
                      -2.28884425E-08,  1.70599444E-11,  2.01333918E+04,
                       3.80613708E+01]),
                NASA([988.70, 5000.00],
                     [ 2.35618038E+01,  3.86218886E-02, -1.40063844E-05,
                       2.54246881E-09, -1.80004120E-13,  1.31784898E+04,
                      -9.18377394E+01])))

species(name=u'C7H8(953)',
        atoms='H:8 C:7',
        thermo=(NASA([100.00, 966.81],
                     [ 1.90138525E+00,  2.67868538E-02,  6.30521699E-05,
                      -9.95222044E-08,  3.94204772E-11,  1.54781490E+04,
                       1.80531034E+01]),
                NASA([966.81, 5000.00],
                     [ 1.41488855E+01,  2.45164374E-02, -8.51968614E-06,
                       1.61189376E-09, -1.20789888E-13,  1.08478552E+04,
                      -5.23193518E+01])))

species(name=u'C5H8(1116)',
        atoms='H:8 C:5',
        thermo=(NASA([100.00, 1049.25],
                     [ 2.01062125E+00,  3.15407221E-02,  2.07789363E-05,
                      -4.44088837E-08,  1.72419051E-11,  7.01383968E+03,
                       1.65768357E+01]),
                NASA([1049.25, 5000.00],
                     [ 1.14809952E+01,  2.45641648E-02, -1.08867246E-05,
                       2.16706993E-09, -1.59145754E-13,  3.42314851E+03,
                      -3.72078949E+01])))

species(name=u'S(1358)',
        atoms='H:12 C:8',
        thermo=(NASA([100.00, 1002.94],
                     [ 1.69470520E-02,  7.28189610E-02, -2.16586522E-05,
                      -2.40806705E-08,  1.44596580E-11,  1.38562448E+04,
                       3.07679147E+01]),
                NASA([1002.94, 5000.00],
                     [ 1.77276964E+01,  3.45993664E-02, -1.29781749E-05,
                       2.37499951E-09, -1.67643382E-13,  8.67334297E+03,
                      -6.28559833E+01])))

species(name=u'S(1365)',
        atoms='H:14 C:10',
        thermo=(NASA([100.00, 986.05],
                     [-1.44907146E+00,  1.01424649E-01, -4.84835626E-05,
                      -1.57995520E-08,  1.50678338E-11,  1.99508928E+04,
                       3.67659087E+01]),
                NASA([986.05, 5000.00],
                     [ 2.42858653E+01,  3.77393729E-02, -1.35337167E-05,
                       2.44097454E-09, -1.72313265E-13,  1.28965429E+04,
                      -9.70645225E+01])))

species(name=u'S(1635)',
        atoms='H:10 C:6',
        thermo=(NASA([100.00, 1036.90],
                     [ 1.50872656E+00,  4.27941517E-02,  1.00401397E-05,
                      -3.76636824E-08,  1.56316704E-11,  7.74480663E+03,
                       2.33494466E+01]),
                NASA([1036.90, 5000.00],
                     [ 1.16601787E+01,  3.10396564E-02, -1.26023661E-05,
                       2.38493738E-09, -1.70149349E-13,  4.16630149E+03,
                      -3.30976488E+01])))

species(name=u'C5H8(1857)',
        atoms='H:8 C:5',
        thermo=(NASA([100.00, 1004.86],
                     [ 1.98272725E+00,  3.49999801E-02,  6.98463280E-06,
                      -3.05024545E-08,  1.32243753E-11,  6.96521087E+03,
                       1.60818631E+01]),
                NASA([1004.86, 5000.00],
                     [ 1.01246935E+01,  2.42323006E-02, -9.24881959E-06,
                       1.70114768E-09, -1.20058754E-13,  4.23622146E+03,
                      -2.86748669E+01])))

species(name=u'CH4(2396)',
        atoms='H:4 C:1',
        thermo=(NASA([100.00, 1084.15],
                     [ 4.20540072E+00, -5.35540640E-03,  2.51117636E-05,
                      -2.13755910E-08,  5.97496145E-12, -1.01619427E+04,
                      -9.21226951E-01]),
                NASA([1084.15, 5000.00],
                     [ 9.08349401E-01,  1.14539479E-02, -4.57166053E-06,
                       8.29173612E-10, -5.66300105E-14, -9.72001110E+03,
                       1.39926204E+01])))

species(name=u'X(1)',
        atoms='X:1',
        thermo=(NASA([100.00, 1554.81],
                     [ 7.10134880E-03, -4.25615041E-05,  8.98521156E-08,
                      -7.80182565E-11,  2.32462166E-14, -8.76099414E-01,
                      -3.11209498E-02]),
                NASA([1554.81, 5000.00],
                     [ 1.60301287E-01, -2.52237396E-04,  1.14182282E-07,
                      -1.21473809E-11,  3.85806589E-16, -7.08108147E+01,
                      -9.09535600E-01])))

species(name=u'HX(5)',
        atoms='H:1 X:1',
        thermo=(NASA([100.00, 952.91],
                     [-3.80957846E-01,  5.47219393E-03,  2.60946928E-06,
                      -9.65008412E-09,  4.63967474E-12,  7.31399096E+02,
                       1.01722845E+00]),
                NASA([952.91, 5000.00],
                     [ 2.80337105E+00, -5.41002993E-04,  4.99482316E-07,
                      -7.54902555E-11,  3.06721398E-15, -2.09339490E+02,
                      -1.59435356E+01])))

species(name=u'C2H3X(37)',
        atoms='H:3 C:2 X:1',
        thermo=(NASA([100.00, 928.60],
                     [ 3.83104022E+00, -8.76542826E-03,  6.98017027E-05,
                      -8.68052566E-08,  3.33256145E-11,  5.22669649E+03,
                      -1.81156365E+01]),
                NASA([928.60, 5000.00],
                     [ 8.78015372E+00,  1.92565992E-03,  8.25424482E-07,
                      -1.63654020E-10,  5.70926320E-15,  2.92745847E+03,
                      -4.90566656E+01])))

species(name=u'allylX(38)',
        atoms='H:5 C:3 X:1',
        thermo=(NASA([100.00, 937.35],
                     [ 3.44141096E+00, -3.47613301E-03,  8.25901551E-05,
                      -1.05552399E-07,  4.04425050E-11,  1.68486689E+03,
                      -6.88821738E+00]),
                NASA([937.35, 5000.00],
                     [ 9.98170901E+00,  8.92230554E-03, -1.75420228E-06,
                       3.12232383E-10, -2.84111933E-14, -1.31202371E+03,
                      -4.74639238E+01])))

species(name=u'CH3X(39)',
        atoms='H:3 C:1 X:1',
        thermo=(NASA([100.00, 848.30],
                     [-1.21090611E+00,  2.92390831E-02, -4.49011672E-05,
                       3.86010689E-08, -1.30361474E-11, -2.49381456E+03,
                       6.80940157E+00]),
                NASA([848.30, 5000.00],
                     [ 1.62291116E+00,  1.12987225E-02, -5.08316650E-06,
                       9.46832954E-10, -6.42885005E-14, -2.80988045E+03,
                      -5.42502394E+00])))

species(name=u'C4H7X(42)',
        atoms='H:7 C:4 X:1',
        thermo=(NASA([100.00, 986.68],
                     [ 2.45797290E+00,  2.47218439E-02,  2.01282012E-05,
                      -4.02730332E-08,  1.62483577E-11,  6.13034190E+03,
                      -5.12988514E+00]),
                NASA([986.68, 5000.00],
                     [ 8.87901611E+00,  2.09043388E-02, -7.83847728E-06,
                       1.44075651E-09, -1.02346191E-13,  3.78197055E+03,
                      -4.15009568E+01])))

species(name=u'C3H5X(45)',
        atoms='H:5 C:3 X:1',
        thermo=(NASA([100.00, 939.07],
                     [ 3.23681525E+00,  3.73154944E-03,  6.01020526E-05,
                      -8.16234054E-08,  3.18530809E-11,  1.41346121E+03,
                      -1.35294815E+01]),
                NASA([939.07, 5000.00],
                     [ 9.70188975E+00,  9.48299599E-03, -2.25947885E-06,
                       3.98417297E-10, -3.27107153E-14, -1.26859219E+03,
                      -5.21286116E+01])))

species(name=u'C4H5X(80)',
        atoms='H:5 C:4 X:1',
        thermo=(NASA([100.00, 936.52],
                     [ 2.68471814E+00,  1.36244384E-02,  5.32592262E-05,
                      -8.32913017E-08,  3.41499632E-11,  7.31993217E+03,
                      -1.06510519E+01]),
                NASA([936.52, 5000.00],
                     [ 1.29012238E+01,  8.96922349E-03, -1.71920361E-06,
                       2.89745198E-10, -2.58686934E-14,  3.69689442E+03,
                      -6.83963240E+01])))

species(name=u'C4H5X(81)',
        atoms='H:5 C:4 X:1',
        thermo=(NASA([100.00, 928.62],
                     [ 2.64239936E+00,  8.31017311E-03,  8.12180670E-05,
                      -1.21403473E-07,  4.98652517E-11,  1.25028378E+04,
                      -1.03935602E+01]),
                NASA([928.62, 5000.00],
                     [ 1.69488231E+01,  2.00857887E-03,  2.03445917E-06,
                      -4.02602194E-10,  1.85354193E-14,  7.46043792E+03,
                      -9.11978215E+01])))

species(name=u'C6H9X(97)',
        atoms='H:9 C:6 X:1',
        thermo=(NASA([100.00, 999.56],
                     [ 1.67666865E+00,  3.46237095E-02,  3.95042933E-05,
                      -7.18098006E-08,  2.83883045E-11,  7.72481218E+03,
                       1.40574199E+00]),
                NASA([999.56, 5000.00],
                     [ 1.32937818E+01,  2.82669225E-02, -1.11807632E-05,
                       2.16224377E-09, -1.59009590E-13,  3.39756308E+03,
                      -6.46636369E+01])))

species(name=u'C6H7X(132)',
        atoms='H:7 C:6 X:1',
        thermo=(NASA([100.00, 921.06],
                     [ 1.31098703E+00,  3.98938896E-02,  3.32176678E-05,
                      -8.35174769E-08,  3.86291185E-11,  1.23368333E+04,
                      -3.79681512E+00]),
                NASA([921.06, 5000.00],
                     [ 1.94242456E+01,  1.10873203E-02, -1.06260774E-06,
                       6.27632967E-11, -7.94405419E-15,  6.88537616E+03,
                      -1.01173483E+02])))

species(name=u'C6H7X(133)',
        atoms='H:7 C:6 X:1',
        thermo=(NASA([100.00, 937.50],
                     [ 1.68534398E+00,  3.10727560E-02,  5.20804043E-05,
                      -9.63159071E-08,  4.10725706E-11,  8.93701375E+03,
                      -3.14969376E+00]),
                NASA([937.50, 5000.00],
                     [ 1.71062698E+01,  1.56096252E-02, -3.71085468E-06,
                       6.25094970E-10, -4.95752994E-14,  3.83369200E+03,
                      -8.83482755E+01])))

species(name=u'C6H7X(134)',
        atoms='H:7 C:6 X:1',
        thermo=(NASA([100.00, 928.32],
                     [ 1.31533986E+00,  3.68784383E-02,  4.55982789E-05,
                      -9.88748537E-08,  4.43876422E-11,  1.81244836E+04,
                      -3.00642679E+00]),
                NASA([928.32, 5000.00],
                     [ 2.11711895E+01,  8.22305277E-03, -4.16748407E-08,
                      -7.09143678E-11, -2.30023750E-15,  1.19861957E+04,
                      -1.10528035E+02])))

species(name=u'C6H9X(192)',
        atoms='H:9 C:6 X:1',
        thermo=(NASA([100.00, 995.65],
                     [ 1.00156767E+00,  5.37833423E-02, -1.05083627E-05,
                      -2.52890803E-08,  1.36191022E-11,  1.40047083E+04,
                       4.73933245E+00]),
                NASA([995.65, 5000.00],
                     [ 1.48280231E+01,  2.56880474E-02, -9.53960436E-06,
                       1.75503504E-09, -1.24934189E-13,  9.89075933E+03,
                      -6.87382183E+01])))

species(name=u'SX(197)',
        atoms='H:11 C:8 X:1',
        thermo=(NASA([100.00, 970.37],
                     [ 5.31888753E-02,  6.71974460E-02,  4.47967233E-06,
                      -5.81686632E-08,  2.81729684E-11,  1.37709643E+04,
                       9.58549953E+00]),
                NASA([970.37, 5000.00],
                     [ 2.04532044E+01,  2.99984680E-02, -1.05050701E-05,
                       1.92654254E-09, -1.39849888E-13,  7.60410438E+03,
                      -9.95950068E+01])))

species(name=u'SX(219)',
        atoms='H:11 C:8 X:1',
        thermo=(NASA([100.00, 958.97],
                     [-1.29580872E-01,  7.13774021E-02, -4.26687430E-06,
                      -5.28328946E-08,  2.74203243E-11,  1.81401795E+04,
                       9.83088009E+00]),
                NASA([958.97, 5000.00],
                     [ 2.17337834E+01,  2.72644778E-02, -8.91170460E-06,
                       1.59381901E-09, -1.15613754E-13,  1.17820264E+04,
                      -1.06018841E+02])))

species(name=u'SX(223)',
        atoms='H:13 C:10 X:1',
        thermo=(NASA([100.00, 965.67],
                     [-1.24683196E+00,  9.17361296E-02, -1.35777423E-05,
                      -5.70044194E-08,  3.08158591E-11,  2.00482035E+04,
                       1.68866908E+01]),
                NASA([965.67, 5000.00],
                     [ 2.63301219E+01,  3.39508980E-02, -1.14939619E-05,
                       2.08491343E-09, -1.51467706E-13,  1.20903829E+04,
                      -1.28819450E+02])))

species(name=u'C6H7X(233)',
        atoms='H:7 C:6 X:1',
        thermo=(NASA([100.00, 945.30],
                     [ 1.76553355E+00,  3.00633278E-02,  5.04861057E-05,
                      -9.18407872E-08,  3.86733382E-11,  2.04024734E+04,
                      -4.22077117E+00]),
                NASA([945.30, 5000.00],
                     [ 1.62873747E+01,  1.66994099E-02, -4.60817474E-06,
                       8.23861477E-10, -6.41052275E-14,  1.55085537E+04,
                      -8.48270189E+01])))

species(name=u'SX(469)',
        atoms='H:15 C:12 X:1',
        thermo=(NASA([100.00, 998.99],
                     [-8.99681644E-01,  7.61931439E-02,  6.22666080E-05,
                      -1.28391527E-07,  5.19511337E-11,  1.64030357E+04,
                       1.70468401E+01]),
                NASA([998.99, 5000.00],
                     [ 2.29686336E+01,  5.66217120E-02, -2.24603797E-05,
                       4.30371748E-09, -3.14006954E-13,  7.84198246E+03,
                      -1.17060178E+02])))

species(name=u'SX(471)',
        atoms='H:15 C:12 X:1',
        thermo=(NASA([100.00, 984.85],
                     [-1.25406433E+00,  8.14711964E-02,  5.99711863E-05,
                      -1.35053269E-07,  5.65286943E-11,  1.38145825E+04,
                       1.50882404E+01]),
                NASA([984.85, 5000.00],
                     [ 2.64952131E+01,  5.12034378E-02, -1.94861180E-05,
                       3.72562272E-09, -2.74710317E-13,  4.35090936E+03,
                      -1.38659347E+02])))

species(name=u'SX(472)',
        atoms='H:15 C:12 X:1',
        thermo=(NASA([100.00, 997.03],
                     [-1.22037600E+00,  8.68473443E-02,  2.60868273E-05,
                      -9.32297667E-08,  4.06519239E-11,  2.76030986E+04,
                       1.98826545E+01]),
                NASA([997.03, 5000.00],
                     [ 2.39594220E+01,  5.16459655E-02, -1.99738667E-05,
                       3.77831029E-09, -2.73880072E-13,  1.93106962E+04,
                      -1.17926077E+02])))

species(name=u'SX(473)',
        atoms='H:15 C:12 X:1',
        thermo=(NASA([100.00, 965.88],
                     [-9.39659102E-01,  7.09157952E-02,  8.81192817E-05,
                      -1.68466748E-07,  7.00250655E-11,  2.09401927E+04,
                       1.75963708E+01]),
                NASA([965.88, 5000.00],
                     [ 2.80707627E+01,  4.41051552E-02, -1.51840188E-05,
                       2.87430427E-09, -2.16535705E-13,  1.09825472E+04,
                      -1.43891551E+02])))

species(name=u'SX(474)',
        atoms='H:15 C:12 X:1',
        thermo=(NASA([100.00, 976.32],
                     [-1.37895498E+00,  8.72745360E-02,  3.54588708E-05,
                      -1.10982201E-07,  4.90757397E-11,  2.05749466E+04,
                       1.56121273E+01]),
                NASA([976.32, 5000.00],
                     [ 2.68034823E+01,  4.65639241E-02, -1.68427426E-05,
                       3.15338239E-09, -2.31112121E-13,  1.15091546E+04,
                      -1.37922322E+02])))

species(name=u'SX(475)',
        atoms='H:15 C:12 X:1',
        thermo=(NASA([100.00, 976.32],
                     [-1.37895498E+00,  8.72745360E-02,  3.54588708E-05,
                      -1.10982201E-07,  4.90757397E-11,  2.05749466E+04,
                       1.56121273E+01]),
                NASA([976.32, 5000.00],
                     [ 2.68034823E+01,  4.65639241E-02, -1.68427426E-05,
                       3.15338239E-09, -2.31112121E-13,  1.15091546E+04,
                      -1.37922322E+02])))

species(name=u'SX(476)',
        atoms='H:15 C:12 X:1',
        thermo=(NASA([100.00, 976.32],
                     [-1.37895498E+00,  8.72745360E-02,  3.54588708E-05,
                      -1.10982201E-07,  4.90757397E-11,  2.05749466E+04,
                       1.56121273E+01]),
                NASA([976.32, 5000.00],
                     [ 2.68034823E+01,  4.65639241E-02, -1.68427426E-05,
                       3.15338239E-09, -2.31112121E-13,  1.15091546E+04,
                      -1.37922322E+02])))

species(name=u'SX(477)',
        atoms='H:15 C:12 X:1',
        thermo=(NASA([100.00, 976.32],
                     [-1.37895498E+00,  8.72745360E-02,  3.54588708E-05,
                      -1.10982201E-07,  4.90757397E-11,  2.05749466E+04,
                       1.56121273E+01]),
                NASA([976.32, 5000.00],
                     [ 2.68034823E+01,  4.65639241E-02, -1.68427426E-05,
                       3.15338239E-09, -2.31112121E-13,  1.15091546E+04,
                      -1.37922322E+02])))

species(name=u'SX(481)',
        atoms='H:15 C:12 X:1',
        thermo=(NASA([100.00, 970.35],
                     [-1.41780951E+00,  8.61769845E-02,  4.36522811E-05,
                      -1.22940533E-07,  5.41523646E-11,  2.16912549E+04,
                       1.56808778E+01]),
                NASA([970.35, 5000.00],
                     [ 2.81972010E+01,  4.42909715E-02, -1.55651487E-05,
                       2.91357405E-09, -2.15572214E-13,  1.21684381E+04,
                      -1.45757041E+02])))

species(name=u'SX(482)',
        atoms='H:15 C:12 X:1',
        thermo=(NASA([100.00, 970.35],
                     [-1.41780951E+00,  8.61769845E-02,  4.36522811E-05,
                      -1.22940533E-07,  5.41523646E-11,  2.16912549E+04,
                       1.56808778E+01]),
                NASA([970.35, 5000.00],
                     [ 2.81972010E+01,  4.42909715E-02, -1.55651487E-05,
                       2.91357405E-09, -2.15572214E-13,  1.21684381E+04,
                      -1.45757041E+02])))

species(name=u'C8H9X(533)',
        atoms='H:9 C:8 X:1',
        thermo=(NASA([100.00, 938.21],
                     [ 3.87929657E-01,  5.55772679E-02,  3.41600896E-05,
                      -9.53579225E-08,  4.38175370E-11,  1.52141428E+04,
                       4.14236180E+00]),
                NASA([938.21, 5000.00],
                     [ 2.29845027E+01,  1.95606548E-02, -4.69928315E-06,
                       7.83415745E-10, -6.11926536E-14,  8.31915441E+03,
                      -1.17580626E+02])))

species(name=u'C8H9X(534)',