units(length='cm', time='s', quantity='mol', act_energy='kcal/mol')

ideal_gas(name='gas',
          elements="H D T C Ci O Oi N Ne Ar He Si S Cl X",
          species="""n-heptane   Ar          He          Ne
                     N2          C2H4(2)     C4H8-1(3)   C4H8-2(4)
                     H2(68)      C2H6(131)   C4H10(137)""",
          transport='Mix',
          initial_state=state(temperature=300.0, pressure=OneAtm))

ideal_interface(name='surface1',
                elements="H D T C Ci O Oi N Ne Ar He Si S Cl X",
                species="""X(1)        HX(5)       C2H3X(37)   CH3X(39)
                          C2H5X(40)   C4H7X(41)   C4H7X(42)   C4H7X(43)
                          C4H7X(44)   C4H9X(64)   C4H9X(65)   C2H2X(70)
                          CH2X(74)    C2H4X(84)   C4H7X(95)   C4H6X(116)
                          CHX(148)    C4H5X(169)  C2H3X(190)  C4H9X(231)
                          C4H9X(250)""",
                site_density=2.72e-09,
                phases="gas",
          reactions='all',
                initial_state=state(temperature=300.0, pressure=OneAtm))

#-------------------------------------------------------------------------------
# Element data
#-------------------------------------------------------------------------------

element(symbol=u'X', atomic_mass=195.083)
element(symbol=u'Ci', atomic_mass=13.003)
element(symbol=u'D', atomic_mass=2.014)
element(symbol=u'Oi', atomic_mass=18.0)
element(symbol=u'T', atomic_mass=3.016)
#-------------------------------------------------------------------------------
# Species data
#-------------------------------------------------------------------------------

species(name=u'n-heptane',
        atoms='H:16 C:7',
        thermo=(NASA([100.00, 1262.73],
                     [-2.91681405E-03,  7.69373649E-02, -3.48025563E-05,
                       1.86095180E-09,  2.01573617E-12, -2.57829342E+04,
                       3.00312148E+01]),
                NASA([1262.73, 5000.00],
                     [ 1.38377915E+01,  4.85945016E-02, -1.95474548E-05,
                       3.52837178E-09, -2.39064676E-13, -3.05141556E+04,
                      -4.48642836E+01])),
        transport=gas_transport(geom='nonlinear',
                                diam=6.366,
                                well_depth=402.997))

species(name=u'Ar',
        atoms='Ar:1',
        thermo=(NASA([200.00, 1000.00],
                     [ 2.50000000E+00,  0.00000000E+00,  0.00000000E+00,
                       0.00000000E+00,  0.00000000E+00, -7.45375000E+02,
                       4.37967000E+00]),
                NASA([1000.00, 6000.00],
                     [ 2.50000000E+00,  0.00000000E+00,  0.00000000E+00,
                       0.00000000E+00,  0.00000000E+00, -7.45375000E+02,
                       4.37967000E+00])),
        transport=gas_transport(geom='atom',
                                diam=3.33,
                                well_depth=136.5))

species(name=u'He',
        atoms='He:1',
        thermo=(NASA([200.00, 1000.00],
                     [ 2.50000000E+00,  0.00000000E+00,  0.00000000E+00,
                       0.00000000E+00,  0.00000000E+00, -7.45375000E+02,
                       9.28724000E-01]),
                NASA([1000.00, 6000.00],
                     [ 2.50000000E+00,  0.00000000E+00,  0.00000000E+00,
                       0.00000000E+00,  0.00000000E+00, -7.45375000E+02,
                       9.28724000E-01])),
        transport=gas_transport(geom='atom',
                                diam=2.576,
                                well_depth=10.2))

species(name=u'Ne',
        atoms='Ne:1',
        thermo=(NASA([200.00, 1000.00],
                     [ 2.50000000E+00,  0.00000000E+00,  0.00000000E+00,
                       0.00000000E+00,  0.00000000E+00, -7.45375000E+02,
                       3.35532000E+00]),
                NASA([1000.00, 6000.00],
                     [ 2.50000000E+00,  0.00000000E+00,  0.00000000E+00,
                       0.00000000E+00,  0.00000000E+00, -7.45375000E+02,
                       3.35532000E+00])),
        transport=gas_transport(geom='atom',
                                diam=3.758,
                                well_depth=148.6))

species(name=u'N2',
        atoms='N:2',
        thermo=(NASA([200.00, 1000.00],
                     [ 3.53101000E+00, -1.23661000E-04, -5.02999000E-07,
                       2.43531000E-09, -1.40881000E-12, -1.04698000E+03,
                       2.96747000E+00]),
                NASA([1000.00, 6000.00],
                     [ 2.95258000E+00,  1.39690000E-03, -4.92632000E-07,
                       7.86010000E-11, -4.60755000E-15, -9.23949000E+02,
                       5.87189000E+00])),
        transport=gas_transport(geom='linear',
                                diam=3.621,
                                well_depth=97.53,
                                polar=1.76,
                                rot_relax=4.0))

species(name=u'C2H4(2)',
        atoms='H:4 C:2',
        thermo=(NASA([100.00, 979.36],
                     [ 3.97471606E+00, -4.75844285E-03,  4.16783770E-05,
                      -4.51392516E-08,  1.54224761E-11,  4.91540746E+03,
                       3.62430844E+00]),
                NASA([979.36, 5000.00],
                     [ 3.55660610E+00,  1.10627464E-02, -4.17019079E-06,
                       7.85586770E-10, -5.70060829E-14,  4.32046489E+03,
                       2.17719479E+00])),
        transport=gas_transport(geom='nonlinear',
                                diam=3.971,
                                well_depth=280.8,
                                rot_relax=1.5))

species(name=u'C4H8-1(3)',
        atoms='H:8 C:4',
        thermo=(NASA([100.00, 1007.28],
                     [ 2.58772906E+00,  2.32777969E-02,  1.93412349E-05,
                      -3.55496333E-08,  1.36906009E-11, -1.91872926E+03,
                       1.45750618E+01]),
                NASA([1007.28, 5000.00],
                     [ 7.20517168E+00,  2.36361568E-02, -9.03150028E-06,
                       1.65392666E-09, -1.16019260E-13, -3.79733937E+03,
                      -1.24426257E+01])),
        transport=gas_transport(geom='nonlinear',
                                diam=5.176,
                                well_depth=357.002,
                                rot_relax=1.0))

species(name=u'C4H8-2(4)',
        atoms='H:8 C:4',
        thermo=(NASA([100.00, 1157.79],
                     [ 2.51998327E+00,  2.76812799E-02,  9.43783469E-07,
                      -1.25009101E-08,  4.67144666E-12, -3.34374767E+03,
                       1.30195623E+01]),
                NASA([1157.79, 5000.00],
                     [ 6.04225708E+00,  2.60072350E-02, -1.04843374E-05,
                       1.90880922E-09, -1.30600505E-13, -4.86276511E+03,
                      -7.52715109E+00])),
        transport=gas_transport(geom='nonlinear',
                                diam=5.289,
                                well_depth=359.053))

species(name=u'H2(68)',
        atoms='H:2',
        thermo=(NASA([100.00, 1959.08],
                     [ 3.43536412E+00,  2.12710353E-04, -2.78625043E-07,
                       3.40267167E-10, -7.76031998E-14, -1.03135984E+03,
                      -3.90841732E+00]),
                NASA([1959.08, 5000.00],
                     [ 2.78816583E+00,  5.87640942E-04,  1.59010417E-07,
                      -5.52739026E-11,  4.34310984E-15, -5.96144270E+02,
                       1.12732655E-01])),
        transport=gas_transport(geom='linear',
                                diam=2.833,
                                well_depth=59.7))

species(name=u'C2H6(131)',
        atoms='H:6 C:2',
        thermo=(NASA([100.00, 1012.42],
                     [ 3.72239291E+00,  1.65083841E-03,  3.44175530E-05,
                      -3.76858229E-08,  1.24450657E-11, -1.15575901E+04,
                       4.68247999E+00]),
                NASA([1012.42, 5000.00],
                     [ 2.82848257E+00,  1.73040568E-02, -6.73334245E-06,
                       1.23742024E-09, -8.65676410E-14, -1.19978080E+04,
                       5.93811707E+00])),
        transport=gas_transport(geom='nonlinear',
                                diam=4.302,
                                well_depth=252.3,
                                rot_relax=1.5))

species(name=u'C4H10(137)',
        atoms='H:10 C:4',
        thermo=(NASA([100.00, 1147.60],
                     [ 2.16918413E+00,  3.43904632E-02, -1.61564236E-06,
                      -1.30726562E-08,  5.17350451E-12, -1.72505136E+04,
                       1.46546701E+01]),
                NASA([1147.60, 5000.00],
                     [ 6.78903089E+00,  3.03598162E-02, -1.21262050E-05,
                       2.19945025E-09, -1.50289312E-13, -1.91057969E+04,
                      -1.17329103E+01])),
        transport=gas_transport(geom='nonlinear',
                                diam=5.415,
                                well_depth=348.415))

species(name=u'X(1)',
        atoms='X:1',
        thermo=(NASA([100.00, 1554.80],
                     [ 7.10139498E-03, -4.25619522E-05,  8.98533016E-08,
                      -7.80193649E-11,  2.32465471E-14, -8.76101712E-01,
                      -3.11211229E-02]),
                NASA([1554.80, 5000.00],
                     [ 1.60299900E-01, -2.52235409E-04,  1.14181275E-07,
                      -1.21471653E-11,  3.85790025E-16, -7.08100885E+01,
                      -9.09527530E-01])))

species(name=u'HX(5)',
        atoms='H:1 X:1',
        thermo=(NASA([100.00, 952.91],
                     [-3.80965452E-01,  5.47228709E-03,  2.60912778E-06,
                      -9.64961980E-09,  4.63946753E-12, -7.19163862E+02,
                       1.01725550E+00]),
                NASA([952.91, 5000.00],
                     [ 2.80339655E+00, -5.41047017E-04,  4.99507978E-07,
                      -7.54963647E-11,  3.06772366E-15, -1.65991328E+03,
                      -1.59436787E+01])))

species(name=u'C2H3X(37)',
        atoms='H:3 C:2 X:1',
        thermo=(NASA([100.00, 928.62],
                     [ 3.83091018E+00, -8.76381562E-03,  6.97956896E-05,
                      -8.67969174E-08,  3.33218121E-11, -2.02611438E+03,
                      -1.81151753E+01]),
                NASA([928.62, 5000.00],
                     [ 8.78054562E+00,  1.92497720E-03,  8.25825014E-07,
                      -1.63749818E-10,  5.71728318E-15, -4.32551751E+03,
                      -4.90588618E+01])))

species(name=u'CH3X(39)',
        atoms='H:3 C:1 X:1',
        thermo=(NASA([100.00, 848.30],
                     [-1.21090496E+00,  2.92390681E-02, -4.49011079E-05,
                       3.86009808E-08, -1.30361041E-11, -9.74663102E+03,
                       6.80939750E+00]),
                NASA([848.30, 5000.00],
                     [ 1.62290877E+00,  1.12987268E-02, -5.08316908E-06,
                       9.46833581E-10, -6.42885536E-14, -1.00626959E+04,
                      -5.42501059E+00])))

species(name=u'C2H5X(40)',
        atoms='H:5 C:2 X:1',
        thermo=(NASA([100.00, 803.81],
                     [-1.64625424E+00,  3.89626488E-02, -4.31128887E-05,
                       2.97076939E-08, -8.80222915E-12, -1.37303060E+04,
                       9.27323637E+00]),
                NASA([803.81, 5000.00],
                     [ 1.97598112E+00,  2.09382766E-02, -9.47916922E-06,
                       1.81392948E-09, -1.27206354E-13, -1.43126548E+04,
                      -7.41107956E+00])))

species(name=u'C4H7X(41)',
        atoms='H:7 C:4 X:1',
        thermo=(NASA([100.00, 971.02],
                     [ 2.64365035E+00,  1.79007589E-02,  4.24443189E-05,
                      -6.44028479E-08,  2.49593993E-11, -9.52466195E+03,
                      -6.69991651E+00]),
                NASA([971.02, 5000.00],
                     [ 9.25871667E+00,  2.04064152E-02, -7.39143670E-06,
                       1.37021231E-09, -9.94133357E-14, -1.22121461E+04,
                      -4.56426102E+01])))

species(name=u'C4H7X(42)',
        atoms='H:7 C:4 X:1',
        thermo=(NASA([100.00, 986.67],
                     [ 2.45798205E+00,  2.47217336E-02,  2.01285964E-05,
                      -4.02735564E-08,  1.62485845E-11, -1.12247490E+03,
                      -5.12991781E+00]),
                NASA([986.67, 5000.00],
                     [ 8.87898065E+00,  2.09043993E-02, -7.83851223E-06,
                       1.44076477E-09, -1.02346878E-13, -3.47083101E+03,
                      -4.15007572E+01])))

species(name=u'C4H7X(43)',
        atoms='H:7 C:4 X:1',
        thermo=(NASA([100.00, 965.06],
                     [ 2.56877619E+00,  1.97500674E-02,  3.72961301E-05,
                      -6.04017092E-08,  2.39989018E-11, -9.79608281E+03,
                      -8.56564322E+00]),
                NASA([965.06, 5000.00],
                     [ 9.89778724E+00,  1.86142959E-02, -6.38884453E-06,
                       1.17309353E-09, -8.55406646E-14, -1.25723740E+04,
                      -5.07182348E+01])))

species(name=u'C4H7X(44)',
        atoms='H:7 C:4 X:1',
        thermo=(NASA([100.00, 949.35],
                     [ 2.54254539E+00,  1.77389010E-02,  4.93877612E-05,
                      -7.72878178E-08,  3.10660019E-11, -8.57044950E+03,
                      -8.46783968E+00]),
                NASA([949.35, 5000.00],
                     [ 1.15220223E+01,  1.60005944E-02, -4.89823595E-06,
                       8.83972924E-10, -6.63710570E-14, -1.19019818E+04,
                      -5.98888028E+01])))

species(name=u'C4H9X(64)',
        atoms='H:9 C:4 X:1',
        thermo=(NASA([100.00, 1009.34],
                     [ 2.45382734E+00,  2.40994657E-02,  3.11010256E-05,
                      -4.95699577E-08,  1.85293661E-11, -1.78684362E+04,
                      -3.52847415E+00]),
                NASA([1009.34, 5000.00],
                     [ 7.52084135E+00,  2.82413531E-02, -1.10515535E-05,
                       2.04772333E-09, -1.44617914E-13, -2.01251577E+04,
                      -3.41331625E+01])))

species(name=u'C4H9X(65)',
        atoms='H:9 C:4 X:1',
        thermo=(NASA([100.00, 993.09],
                     [ 2.22649262E+00,  2.86530428E-02,  2.37814781E-05,
                      -4.60601877E-08,  1.82913065E-11, -1.65854214E+04,
                      -3.55141667E+00]),
                NASA([993.09, 5000.00],
                     [ 9.09063018E+00,  2.59568873E-02, -9.83403420E-06,
                       1.80637207E-09, -1.27731480E-13, -1.91791428E+04,
                      -4.28140480E+01])))

species(name=u'C2H2X(70)',
        atoms='H:2 C:2 X:1',
        thermo=(NASA([100.00, 1146.89],
                     [-1.35665997E+00,  2.85338019E-02, -3.11240758E-05,
                       1.70134067E-08, -3.63322671E-12, -9.60073593E+03,
                       3.79543665E+00]),
                NASA([1146.89, 5000.00],
                     [ 4.86807469E+00,  6.82428196E-03, -2.73110334E-06,
                       5.09415334E-10, -3.57467832E-14, -1.10285822E+04,
                      -2.70885611E+01])))

species(name=u'CH2X(74)',
        atoms='H:2 C:1 X:1',
        thermo=(NASA([100.00, 1199.82],
                     [-1.02006594E+00,  2.03778552E-02, -2.17291076E-05,
                       1.15868543E-08, -2.38469979E-12, -7.60495471E+03,
                       2.99160459E+00]),
                NASA([1199.82, 5000.00],
                     [ 3.89285483E+00,  3.99892281E-03, -1.25227942E-06,
                       2.09081361E-10, -1.39642489E-14, -8.78387358E+03,
                      -2.16053707E+01])))

species(name=u'C2H4X(84)',
        atoms='H:4 C:2 X:1',
        thermo=(NASA([100.00, 922.92],
                     [-1.51744559E+00,  3.54364794E-02, -3.81057246E-05,
                       2.35708696E-08, -6.09814448E-12, -1.27134208E+04,
                       5.77183816E+00]),
                NASA([922.92, 5000.00],
                     [ 2.83446173E+00,  1.65755797E-02, -7.45248059E-06,
                       1.42932264E-09, -1.00637720E-13, -1.35167376E+04,
                      -1.48746526E+01])))

species(name=u'C4H7X(95)',
        atoms='H:7 C:4 X:1',
        thermo=(NASA([100.00, 947.75],
                     [ 2.86440387E+00,  8.12954614E-03,  7.59606536E-05,
                      -1.03618267E-07,  4.00694538E-11, -9.50581845E+03,
                      -2.40038485E+00]),
                NASA([947.75, 5000.00],
                     [ 1.10489656E+01,  1.63914163E-02, -4.86280875E-06,
                       8.89632629E-10, -6.85128174E-14, -1.29796346E+04,
                      -5.15890409E+01])))

species(name=u'C4H6X(116)',
        atoms='H:6 C:4 X:1',
        thermo=(NASA([100.00, 948.80],
                     [ 2.81046852E+00,  9.73952375E-03,  7.48756446E-05,
                      -1.02011004E-07,  3.92852520E-11, -9.51642875E+03,
                      -5.80393637E+00]),
                NASA([948.80, 5000.00],
                     [ 1.04718799E+01,  1.91376172E-02, -5.90406857E-06,
                       1.06800075E-09, -8.00331345E-14, -1.28470923E+04,
                      -5.22537582E+01])))

species(name=u'CHX(148)',
        atoms='H:1 C:1 X:1',
        thermo=(NASA([100.00, 1596.82],
                     [-9.66375239E-01,  1.63179003E-02, -1.75392280E-05,
                       8.64095863E-09, -1.55501450E-12, -1.42336365E+04,
                       2.54982370E+00]),
                NASA([1596.82, 5000.00],
                     [ 4.21481268E+00,  2.18383120E-04,  5.15662242E-07,
                      -1.20800791E-10,  8.35331125E-15, -1.54904519E+04,
                      -2.36254632E+01])))

species(name=u'C4H5X(169)',
        atoms='H:5 C:4 X:1',
        thermo=(NASA([100.00, 944.15],
                     [ 2.57733081E+00,  1.99647961E-02,  2.77060418E-05,
                      -5.31548663E-08,  2.26470794E-11, -2.64248913E+04,
                      -6.22100805E+00]),
                NASA([944.15, 5000.00],
                     [ 1.14787034E+01,  1.07754050E-02, -3.00896846E-06,
                       5.29907207E-10, -4.04610305E-14, -2.93769971E+04,
                      -5.53857357E+01])))

species(name=u'C2H3X(190)',
        atoms='H:3 C:2 X:1',
        thermo=(NASA([100.00, 808.66],
                     [-1.45265119E+00,  3.42707130E-02, -4.40842489E-05,
                       3.22607728E-08, -9.67624704E-12, -2.19539937E+04,
                       5.13282637E+00]),
                NASA([808.66, 5000.00],
                     [ 2.64802880E+00,  1.39871175E-02, -6.46022245E-06,
                       1.24353765E-09, -8.72725792E-14, -2.26172124E+04,
                      -1.37797421E+01])))

species(name=u'C4H9X(231)',
        atoms='H:9 C:4 X:1',
        thermo=(NASA([100.00, 971.26],
                     [ 2.18772440E+00,  2.80528478E-02,  2.95105136E-05,
                      -5.52418068E-08,  2.24096997E-11, -1.73625852E+04,
                      -4.38995955E+00]),
                NASA([971.26, 5000.00],
                     [ 1.02820894E+01,  2.36845782E-02, -8.47958205E-06,
                       1.54097166E-09, -1.09822739E-13, -2.03012457E+04,
                      -5.02382526E+01])))

species(name=u'C4H9X(250)',
        atoms='H:9 C:4 X:1',
        thermo=(NASA([100.00, 1080.66],
                     [ 2.49980748E+00,  2.56090126E-02,  2.02156117E-05,
                      -3.35382937E-08,  1.17334539E-11, -1.97112598E+04,
                      -5.31057752E+00]),
                NASA([1080.66, 5000.00],
                     [ 5.84130366E+00,  3.13511981E-02, -1.28929697E-05,
                       2.39456635E-09, -1.66872037E-13, -2.14909607E+04,
                      -2.65834022E+01])))
