units(length='cm', time='s', quantity='mol', act_energy='kcal/mol')

ideal_gas(name='gas',
          elements="H D T C Ci O Oi N Ne Ar He Si S Cl X",
          species="""n-heptane   Ar          He          Ne
                     N2          C2H4(2)     C4H8-1(3)   C4H8-2(4)
                     C4H6(7)     C3H6(32)    H2(68)      C8H12(102)
                     C6H8(111)   S(190)      S(205)      S(216)
                     S(377)      S(432)      S(477)      S(563)
                     S(571)      C7H9(768)   S(905)      C7H9(915)
                     S(1061)     S(1062)     S(1147)     C5H8(1248)
                     S(1289)     S(1306)     S(1385)     S(1573)
                     S(2101)     S(2480)     S(2552)     S(2657)
                     S(2706)     S(2708)     S(2739)     S(2741)
                     S(2742)     S(2825)     S(2910)     S(2996)
                     S(3016)     S(3055)     S(3155)     S(3222)
                     S(3254)     S(3286)     S(3700)     S(3709)
                     C7H8(4368)  CH4(5378)   S(5695)     C5H8(6401)
                     S(6774)""",
          reactions='gas-*',
          initial_state=state(temperature=300.0, pressure=OneAtm))

ideal_interface(name='surface1',
                elements="H D T C Ci O Oi N Ne Ar He Si S Cl X",
                species="""X(1)        HX(5)       C2H3X(37)   allylX(38)
                          CH3X(39)    C3H5X(45)   C4H5X(80)   C4H5X(81)
                          C6H7X(141)  C6H7X(143)  SX(335)     SX(337)
                          SX(338)     SX(340)     SX(341)     SX(342)
                          SX(343)     SX(344)     SX(364)     SX(365)
                          SX(370)     SX(371)     SX(374)     SX(385)
                          SX(386)     C7H9X(389)  SX(399)     SX(405)
                          SX(426)     SX(427)     SX(491)     SX(492)
                          SX(493)     SX(494)     SX(495)     SX(496)
                          SX(533)     SX(558)     SX(559)     SX(569)
                          SX(718)     SX(720)     SX(721)     SX(722)
                          SX(725)     SX(761)     SX(834)     SX(837)
                          SX(838)     SX(839)     SX(840)     SX(894)
                          SX(902)     SX(911)     C7H9X(980)  SX(982)
                          SX(984)     SX(985)     SX(1016)    SX(1055)
                          SX(1056)    SX(1158)    SX(1159)    SX(1160)
                          SX(1270)    SX(1284)    SX(1299)    SX(1301)
                          SX(1318)    SX(1335)    SX(1336)    SX(1393)
                          SX(1483)    SX(1551)    SX(1601)    SX(1763)
                          SX(1765)    SX(1766)    SX(1767)    SX(1806)
                          SX(1808)    SX(1857)    SX(1859)    SX(1860)
                          SX(1861)    SX(2086)    SX(2090)    SX(2241)
                          SX(2243)    SX(2275)    SX(2331)    SX(2332)
                          SX(2333)    SX(2334)    SX(2537)    SX(2541)
                          SX(2575)    SX(2576)    SX(2621)    SX(2755)
                          SX(2756)    SX(2757)    SX(2759)    SX(2841)
                          SX(2842)    SX(2979)    SX(3048)    SX(3052)
                          SX(3105)    SX(3106)    SX(3125)    SX(3170)
                          SX(3172)    SX(3248)    SX(3252)    SX(3287)
                          SX(3349)    SX(3350)    SX(3351)    SX(3352)
                          SX(3354)    SX(3442)    SX(3538)    SX(3540)
                          SX(3541)    SX(3542)    SX(3543)    SX(3608)
                          SX(3693)    SX(3697)    SX(3806)    SX(3863)
                          SX(3864)    SX(3865)    SX(3980)    SX(3981)
                          SX(4185)    SX(4251)    SX(4255)    SX(4380)
                          SX(4381)    SX(4415)    SX(4465)    SX(4466)
                          SX(4578)    SX(4582)    SX(4697)    SX(4698)
                          SX(4699)    SX(4700)    SX(5692)    SX(5909)
                          SX(5936)    SX(5979)    SX(5980)    SX(5981)
                          SX(6243)    SX(6783)    SX(6784)    SX(6965)
                          SX(7251)    SX(7332)    SX(7333)    SX(7389)
                          SX(7390)    SX(7391)    SX(7392)    SX(7393)
                          SX(7469)    SX(7515)    SX(7561)    SX(7562)
                          SX(7563)    SX(7564)    SX(7565)    SX(7636)
                          SX(7668)    SX(7678)    SX(7688)    SX(7704)
                          SX(7705)""",
                site_density=2.72e-09,
                phases="gas",
          reactions='surface1-*',
                initial_state=state(temperature=300.0, pressure=OneAtm))

#-------------------------------------------------------------------------------
# Element data
#-------------------------------------------------------------------------------

element(symbol=u'X', atomic_mass=195.083)
element(symbol=u'Ci', atomic_mass=13.003)
element(symbol=u'D', atomic_mass=2.014)
element(symbol=u'Oi', atomic_mass=18.0)
element(symbol=u'T', atomic_mass=3.016)
#-------------------------------------------------------------------------------
# Species data
#-------------------------------------------------------------------------------

species(name=u'n-heptane',
        atoms='H:16 C:7',
        thermo=(NASA([100.00, 1262.73],
                     [-2.91681405E-03,  7.69373649E-02, -3.48025563E-05,
                       1.86095180E-09,  2.01573617E-12, -2.57829342E+04,
                       3.00312148E+01]),
                NASA([1262.73, 5000.00],
                     [ 1.38377915E+01,  4.85945016E-02, -1.95474548E-05,
                       3.52837178E-09, -2.39064676E-13, -3.05141556E+04,
                      -4.48642836E+01])))

species(name=u'Ar',
        atoms='Ar:1',
        thermo=(NASA([200.00, 1000.00],
                     [ 2.50000000E+00,  0.00000000E+00,  0.00000000E+00,
                       0.00000000E+00,  0.00000000E+00, -7.45375000E+02,
                       4.37967000E+00]),
                NASA([1000.00, 6000.00],
                     [ 2.50000000E+00,  0.00000000E+00,  0.00000000E+00,
                       0.00000000E+00,  0.00000000E+00, -7.45375000E+02,
                       4.37967000E+00])))

species(name=u'He',
        atoms='He:1',
        thermo=(NASA([200.00, 1000.00],
                     [ 2.50000000E+00,  0.00000000E+00,  0.00000000E+00,
                       0.00000000E+00,  0.00000000E+00, -7.45375000E+02,
                       9.28724000E-01]),
                NASA([1000.00, 6000.00],
                     [ 2.50000000E+00,  0.00000000E+00,  0.00000000E+00,
                       0.00000000E+00,  0.00000000E+00, -7.45375000E+02,
                       9.28724000E-01])))

species(name=u'Ne',
        atoms='Ne:1',
        thermo=(NASA([200.00, 1000.00],
                     [ 2.50000000E+00,  0.00000000E+00,  0.00000000E+00,
                       0.00000000E+00,  0.00000000E+00, -7.45375000E+02,
                       3.35532000E+00]),
                NASA([1000.00, 6000.00],
                     [ 2.50000000E+00,  0.00000000E+00,  0.00000000E+00,
                       0.00000000E+00,  0.00000000E+00, -7.45375000E+02,
                       3.35532000E+00])))

species(name=u'N2',
        atoms='N:2',
        thermo=(NASA([200.00, 1000.00],
                     [ 3.53101000E+00, -1.23661000E-04, -5.02999000E-07,
                       2.43531000E-09, -1.40881000E-12, -1.04698000E+03,
                       2.96747000E+00]),
                NASA([1000.00, 6000.00],
                     [ 2.95258000E+00,  1.39690000E-03, -4.92632000E-07,
                       7.86010000E-11, -4.60755000E-15, -9.23949000E+02,
                       5.87189000E+00])))

species(name=u'C2H4(2)',
        atoms='H:4 C:2',
        thermo=(NASA([100.00, 979.36],
                     [ 3.97471606E+00, -4.75844285E-03,  4.16783770E-05,
                      -4.51392516E-08,  1.54224761E-11,  4.91540746E+03,
                       3.62430844E+00]),
                NASA([979.36, 5000.00],
                     [ 3.55660610E+00,  1.10627464E-02, -4.17019079E-06,
                       7.85586770E-10, -5.70060829E-14,  4.32046489E+03,
                       2.17719479E+00])))

species(name=u'C4H8-1(3)',
        atoms='H:8 C:4',
        thermo=(NASA([100.00, 1007.28],
                     [ 2.58772906E+00,  2.32777969E-02,  1.93412349E-05,
                      -3.55496333E-08,  1.36906009E-11, -1.91872926E+03,
                       1.45750618E+01]),
                NASA([1007.28, 5000.00],
                     [ 7.20517168E+00,  2.36361568E-02, -9.03150028E-06,
                       1.65392666E-09, -1.16019260E-13, -3.79733937E+03,
                      -1.24426257E+01])))

species(name=u'C4H8-2(4)',
        atoms='H:8 C:4',
        thermo=(NASA([100.00, 1157.79],
                     [ 2.51998327E+00,  2.76812799E-02,  9.43783469E-07,
                      -1.25009101E-08,  4.67144666E-12, -3.34374767E+03,
                       1.30195623E+01]),
                NASA([1157.79, 5000.00],
                     [ 6.04225708E+00,  2.60072350E-02, -1.04843374E-05,
                       1.90880922E-09, -1.30600505E-13, -4.86276511E+03,
                      -7.52715109E+00])))

species(name=u'C4H6(7)',
        atoms='H:6 C:4',
        thermo=(NASA([100.00, 946.05],
                     [ 2.80599310E+00,  1.02584471E-02,  6.17260255E-05,
                      -9.01642687E-08,  3.59116961E-11,  1.16584972E+04,
                       1.20621434E+01]),
                NASA([946.05, 5000.00],
                     [ 1.24693720E+01,  1.00553901E-02, -2.41206872E-06,
                       4.57077303E-10, -3.93160571E-14,  8.01077795E+03,
                      -4.36374720E+01])))

species(name=u'C3H6(32)',
        atoms='H:6 C:3',
        thermo=(NASA([100.00, 983.75],
                     [ 3.31912102E+00,  8.17958674E-03,  3.34736123E-05,
                      -4.36193684E-08,  1.58213364E-11,  7.49325328E+02,
                       9.54025058E+00]),
                NASA([983.75, 5000.00],
                     [ 5.36755173E+00,  1.70743019E-02, -6.35107626E-06,
                       1.16619529E-09, -8.27620279E-14, -4.87138326E+02,
                      -4.54467529E+00])))

species(name=u'H2(68)',
        atoms='H:2',
        thermo=(NASA([100.00, 1959.08],
                     [ 3.43536412E+00,  2.12710353E-04, -2.78625043E-07,
                       3.40267167E-10, -7.76031998E-14, -1.03135984E+03,
                      -3.90841732E+00]),
                NASA([1959.08, 5000.00],
                     [ 2.78816583E+00,  5.87640942E-04,  1.59010417E-07,
                      -5.52739026E-11,  4.34310984E-15, -5.96144270E+02,
                       1.12732655E-01])))

species(name=u'C8H12(102)',
        atoms='H:12 C:8',
        thermo=(NASA([100.00, 973.99],
                     [ 1.29290720E+00,  3.40987620E-02,  8.83250757E-05,
                      -1.34013150E-07,  5.20549907E-11,  6.25186440E+03,
                       2.49510784E+01]),
                NASA([973.99, 5000.00],
                     [ 1.61828450E+01,  3.65065469E-02, -1.32663093E-05,
                       2.52136923E-09, -1.87069022E-13,  3.36603553E+02,
                      -6.19680596E+01])))

species(name=u'C6H8(111)',
        atoms='H:8 C:6',
        thermo=(NASA([100.00, 972.94],
                     [ 1.82686070E+00,  3.47046353E-02,  2.41070171E-05,
                      -5.44847920E-08,  2.29388832E-11,  1.99100661E+04,
                       1.81393315E+01]),
                NASA([972.94, 5000.00],
                     [ 1.21686202E+01,  2.40472785E-02, -8.58151834E-06,
                       1.57034031E-09, -1.12795334E-13,  1.63897115E+04,
                      -3.92195169E+01])))

species(name=u'S(190)',
        atoms='H:14 C:10',
        thermo=(NASA([100.00, 968.43],
                     [-1.78657670E-01,  6.27636610E-02,  6.13275679E-05,
                      -1.25568699E-07,  5.26247225E-11,  1.23467547E+04,
                       3.16624716E+01]),
                NASA([968.43, 5000.00],
                     [ 2.28001036E+01,  3.95488872E-02, -1.37666755E-05,
                       2.57450736E-09, -1.90686366E-13,  4.53405575E+03,
                      -9.58178615E+01])))

species(name=u'S(205)',
        atoms='H:16 C:12',
        thermo=(NASA([100.00, 980.77],
                     [-2.21845665E+00,  1.15202302E-01, -4.46058253E-05,
                      -2.89292454E-08,  2.08193354E-11,  3.97133228E+04,
                       4.48687920E+01]),
                NASA([980.77, 5000.00],
                     [ 2.59409200E+01,  4.89148103E-02, -1.74910345E-05,
                       3.12129948E-09, -2.18247198E-13,  3.18543069E+04,
                      -1.02343316E+02])))

species(name=u'S(216)',
        atoms='H:16 C:12',
        thermo=(NASA([100.00, 989.29],
                     [-1.49871027E+00,  8.97231513E-02,  3.13728211E-05,
                      -1.05849951E-07,  4.65472901E-11,  2.08342656E+04,
                       3.86324941E+01]),
                NASA([989.29, 5000.00],
                     [ 2.71231573E+01,  4.82447418E-02, -1.83146882E-05,
                       3.49879125E-09, -2.57494969E-13,  1.15378770E+04,
                      -1.17506583E+02])))

species(name=u'S(377)',
        atoms='H:16 C:12',
        thermo=(NASA([100.00, 990.94],
                     [-1.53673879E+00,  9.50296733E-02,  8.13325447E-06,
                      -7.82185025E-08,  3.63989841E-11,  2.10168816E+04,
                       3.81765950E+01]),
                NASA([990.94, 5000.00],
                     [ 2.49483558E+01,  5.05143791E-02, -1.89287732E-05,
                       3.52660923E-09, -2.53947844E-13,  1.27044184E+04,
                      -1.04814787E+02])))

species(name=u'S(432)',
        atoms='H:13 C:10',
        thermo=(NASA([100.00, 1000.73],
                     [ 9.24555464E-02,  5.97355855E-02,  5.78871300E-05,
                      -1.10867485E-07,  4.41580299E-11,  2.45217629E+04,
                       2.85420964E+01]),
                NASA([1000.73, 5000.00],
                     [ 1.89949310E+01,  4.75913310E-02, -1.89555491E-05,
                       3.64083741E-09, -2.65833917E-13,  1.75633333E+04,
                      -7.85294588E+01])))

species(name=u'S(477)',
        atoms='H:14 C:10',
        thermo=(NASA([100.00, 1026.38],
                     [-2.04485560E-01,  6.87984832E-02,  3.42640846E-05,
                      -8.47374871E-08,  3.42039564E-11,  1.03310869E+04,
                       2.80524687E+01]),
                NASA([1026.38, 5000.00],
                     [ 1.86284987E+01,  5.10531563E-02, -2.11321735E-05,
                       4.07064082E-09, -2.94617581E-13,  3.53386199E+03,
                      -7.75757937E+01])))

species(name=u'S(563)',
        atoms='H:14 C:10',
        thermo=(NASA([100.00, 970.34],
                     [-3.28487740E-01,  6.79750194E-02,  4.42520541E-05,
                      -1.07809934E-07,  4.64255133E-11,  1.46939885E+04,
                       3.39002001E+01]),
                NASA([970.34, 5000.00],
                     [ 2.28201331E+01,  3.89925844E-02, -1.36560388E-05,
                       2.54270569E-09, -1.87097534E-13,  7.07363110E+03,
                      -9.31994007E+01])))

species(name=u'S(571)',
        atoms='H:16 C:12',
        thermo=(NASA([100.00, 982.76],
                     [-1.03808602E+00,  8.05740827E-02,  4.80027674E-05,
                      -1.17435606E-07,  4.97232474E-11,  2.09024065E+04,
                       3.77852686E+01]),
                NASA([982.76, 5000.00],
                     [ 2.39648304E+01,  5.16928884E-02, -1.91607213E-05,
                       3.59003721E-09, -2.61019934E-13,  1.24683578E+04,
                      -1.00311637E+02])))

species(name=u'C7H9(768)',
        atoms='H:9 C:7',
        thermo=(NASA([100.00, 960.10],
                     [ 1.94183052E+00,  2.40649774E-02,  7.97952916E-05,
                      -1.18026725E-07,  4.61192248E-11,  2.16204187E+04,
                       2.19868571E+01]),
                NASA([960.10, 5000.00],
                     [ 1.38393996E+01,  2.78185296E-02, -9.37614248E-06,
                       1.73813373E-09, -1.29114199E-13,  1.68783004E+04,
                      -4.77260465E+01])))

species(name=u'S(905)',
        atoms='H:14 C:10',
        thermo=(NASA([100.00, 989.70],
                     [ 1.16213530E-02,  5.67932191E-02,  7.99766426E-05,
                      -1.39834678E-07,  5.55098314E-11,  1.18689052E+04,
                       2.94048011E+01]),
                NASA([989.70, 5000.00],
                     [ 2.16278620E+01,  4.53301017E-02, -1.76870600E-05,
                       3.44167971E-09, -2.56032011E-13,  3.87287380E+03,
                      -9.34372510E+01])))

species(name=u'C7H9(915)',
        atoms='H:9 C:7',
        thermo=(NASA([100.00, 966.75],
                     [ 2.44031979E+00,  3.54783737E-03,  1.50499749E-04,
                      -1.92760563E-07,  7.19357795E-11,  2.02488534E+04,
                       1.75204754E+01]),
                NASA([966.75, 5000.00],
                     [ 1.53585180E+01,  2.86008114E-02, -1.01769065E-05,
                       2.03753580E-09, -1.60011572E-13,  1.40826607E+04,
                      -6.33387007E+01])))

species(name=u'S(1061)',
        atoms='H:10 C:7',
        thermo=(NASA([100.00, 978.55],
                     [ 1.83144977E+00,  2.06363349E-02,  1.08890919E-04,
                      -1.51232791E-07,  5.72826355E-11,  5.97057671E+03,
                       1.66031170E+01]),
                NASA([978.55, 5000.00],
                     [ 1.59825370E+01,  3.10964530E-02, -1.18468326E-05,
                       2.35586795E-09, -1.80193592E-13, -6.92551732E+01,
                      -6.80708888E+01])))

species(name=u'S(1062)',
        atoms='H:12 C:9',
        thermo=(NASA([100.00, 1003.47],
                     [ 4.80840688E-01,  5.28006368E-02,  5.61219913E-05,
                      -1.04546501E-07,  4.13948123E-11,  1.46403908E+04,
                       2.30912835E+01]),
                NASA([1003.47, 5000.00],
                     [ 1.81618595E+01,  4.20138156E-02, -1.69830892E-05,
                       3.30219298E-09, -2.42996179E-13,  8.08653096E+03,
                      -7.72456188E+01])))

species(name=u'S(1147)',
        atoms='H:10 C:7',
        thermo=(NASA([100.00, 979.32],
                     [ 1.64037601E+00,  3.30407631E-02,  5.73615696E-05,
                      -9.34248358E-08,  3.66702378E-11,  6.03332317E+03,
                       1.91899459E+01]),
                NASA([979.32, 5000.00],
                     [ 1.34702467E+01,  3.13941998E-02, -1.16025899E-05,
                       2.18566267E-09, -1.59845534E-13,  1.47817706E+03,
                      -4.90619106E+01])))

species(name=u'C5H8(1248)',
        atoms='H:8 C:5',
        thermo=(NASA([100.00, 1004.86],
                     [ 1.98273955E+00,  3.49998332E-02,  6.98515281E-06,
                      -3.05031334E-08,  1.32246652E-11,  6.96521034E+03,
                       1.60818191E+01]),
                NASA([1004.86, 5000.00],
                     [ 1.01246420E+01,  2.42323877E-02, -9.24886971E-06,
                       1.70115950E-09, -1.20059732E-13,  4.23624320E+03,
                      -2.86745770E+01])))

species(name=u'S(1289)',
        atoms='H:12 C:9',
        thermo=(NASA([100.00, 993.11],
                     [ 9.77481959E-01,  3.83737388E-02,  9.58656372E-05,
                      -1.43559271E-07,  5.46119678E-11,  1.45259988E+04,
                       2.27068638E+01]),
                NASA([993.11, 5000.00],
                     [ 1.71624074E+01,  4.32174592E-02, -1.72287405E-05,
                       3.36872274E-09, -2.50317181E-13,  7.85779769E+03,
                      -7.26515985E+01])))

species(name=u'S(1306)',
        atoms='H:10 C:7',
        thermo=(NASA([100.00, 955.82],
                     [ 1.48815239E+00,  3.18444302E-02,  7.31362909E-05,
                      -1.19276583E-07,  4.82830646E-11,  8.79580288E+03,
                       2.11106153E+01]),
                NASA([955.82, 5000.00],
                     [ 1.72474758E+01,  2.46393030E-02, -7.74842595E-06,
                       1.44125128E-09, -1.09978719E-13,  3.09970252E+03,
                      -6.82445295E+01])))

species(name=u'S(1385)',
        atoms='H:10 C:7',
        thermo=(NASA([100.00, 980.91],
                     [ 1.65334290E+00,  3.30618161E-02,  5.62240703E-05,
                      -9.16633895E-08,  3.59156187E-11,  7.42935681E+03,
                       2.14648871E+01]),
                NASA([980.91, 5000.00],
                     [ 1.32507895E+01,  3.16428835E-02, -1.17556292E-05,
                       2.21479726E-09, -1.61719039E-13,  2.94719555E+03,
                      -4.55120499E+01])))

species(name=u'S(1573)',
        atoms='H:10 C:7',
        thermo=(NASA([100.00, 991.10],
                     [ 1.45206258E+00,  3.95608276E-02,  3.79817813E-05,
                      -7.23333338E-08,  2.89390940E-11,  8.92709351E+03,
                       2.02436365E+01]),
                NASA([991.10, 5000.00],
                     [ 1.30087644E+01,  3.29171228E-02, -1.24993070E-05,
                       2.34279347E-09, -1.68970835E-13,  4.67185461E+03,
                      -4.53180090E+01])))

species(name=u'S(2101)',
        atoms='H:10 C:7',
        thermo=(NASA([100.00, 990.67],
                     [ 1.61244061E+00,  3.53221029E-02,  4.73459320E-05,
                      -8.08479611E-08,  3.16632146E-11,  1.13705736E+04,
                       2.08743922E+01]),
                NASA([990.67, 5000.00],
                     [ 1.27029084E+01,  3.26890509E-02, -1.24823922E-05,
                       2.35714576E-09, -1.71018918E-13,  7.10497642E+03,
                      -4.29651084E+01])))

species(name=u'S(2480)',
        atoms='H:12 C:9',
        thermo=(NASA([100.00, 972.41],
                     [ 1.81703106E-01,  6.17291002E-02,  2.92101925E-05,
                      -8.31841211E-08,  3.64636031E-11,  1.35242495E+04,
                       2.81764591E+01]),
                NASA([972.41, 5000.00],
                     [ 1.98610756E+01,  3.46965821E-02, -1.22623421E-05,
                       2.26939974E-09, -1.65455678E-13,  7.14773755E+03,
                      -7.93222950E+01])))

species(name=u'S(2552)',
        atoms='H:14 C:10',
        thermo=(NASA([100.00, 1055.81],
                     [-3.54017477E-01,  7.84287704E-02, -6.80308534E-06,
                      -3.81808354E-08,  1.75614230E-11,  1.48609857E+04,
                       2.94273079E+01]),
                NASA([1055.81, 5000.00],
                     [ 1.66306406E+01,  5.11587625E-02, -2.07367411E-05,
                       3.87868245E-09, -2.73480890E-13,  9.20790612E+03,
                      -6.32229088E+01])))

species(name=u'S(2657)',
        atoms='H:14 C:10',
        thermo=(NASA([100.00, 974.14],
                     [-4.98430854E-01,  7.37939716E-02,  2.71851067E-05,
                      -8.95987019E-08,  3.98718484E-11,  9.43089456E+03,
                       3.12086110E+01]),
                NASA([974.14, 5000.00],
                     [ 2.24683141E+01,  4.00995513E-02, -1.42625815E-05,
                       2.63940716E-09, -1.92019869E-13,  2.08049504E+03,
                      -9.37518546E+01])))

species(name=u'S(2706)',
        atoms='H:13 C:10',
        thermo=(NASA([100.00, 986.38],
                     [-1.54493551E-05,  6.58256267E-02,  3.11002907E-05,
                      -8.35076671E-08,  3.55086836E-11,  1.81700564E+04,
                       3.24482933E+01]),
                NASA([986.38, 5000.00],
                     [ 1.83909399E+01,  4.41789029E-02, -1.64765093E-05,
                       3.05235475E-09, -2.18908318E-13,  1.19669088E+04,
                      -6.90782445E+01])))

species(name=u'S(2708)',
        atoms='H:11 C:9',
        thermo=(NASA([100.00, 963.97],
                     [ 6.97669004E-01,  4.05011063E-02,  1.00904480E-04,
                      -1.61709339E-07,  6.47558467E-11,  2.47807447E+04,
                       2.39142300E+01]),
                NASA([963.97, 5000.00],
                     [ 2.21259973E+01,  3.19636282E-02, -1.08873074E-05,
                       2.10582477E-09, -1.62535867E-13,  1.69149331E+04,
                      -9.80495422E+01])))

species(name=u'S(2739)',
        atoms='H:12 C:9',
        thermo=(NASA([100.00, 971.20],
                     [ 1.68807066E-01,  6.17067903E-02,  3.03543180E-05,
                      -8.49578920E-08,  3.72253564E-11,  1.21282131E+04,
                       2.59012892E+01]),
                NASA([971.20, 5000.00],
                     [ 2.00822336E+01,  3.44451463E-02, -1.21077730E-05,
                       2.23991357E-09, -1.63553620E-13,  5.67795931E+03,
                      -8.28818167E+01])))

species(name=u'S(2741)',
        atoms='H:14 C:10',
        thermo=(NASA([100.00, 1020.53],
                     [-3.97088667E-01,  7.75162211E-02,  6.84060276E-07,
                      -5.05020494E-08,  2.30977837E-11,  1.21827946E+04,
                       3.09001989E+01]),
                NASA([1020.53, 5000.00],
                     [ 1.81749563E+01,  4.77343168E-02, -1.87621936E-05,
                       3.50079189E-09, -2.48591460E-13,  6.15234931E+03,
                      -7.00502669E+01])))

species(name=u'S(2742)',
        atoms='H:14 C:10',
        thermo=(NASA([100.00, 993.52],
                     [ 2.15843276E-01,  5.91483958E-02,  5.29942731E-05,
                      -1.03518063E-07,  4.15245382E-11,  1.26312914E+04,
                       3.01350656E+01]),
                NASA([993.52, 5000.00],
                     [ 1.73970636E+01,  4.82362593E-02, -1.84929210E-05,
                       3.47527858E-09, -2.50708945E-13,  6.34191811E+03,
                      -6.71135018E+01])))

species(name=u'S(2825)',
        atoms='H:12 C:9',
        thermo=(NASA([100.00, 1022.93],
                     [ 2.72267371E-01,  6.54049296E-02,  3.93224789E-06,
                      -4.59533867E-08,  2.04849727E-11,  1.48800217E+04,
                       2.55852346E+01]),
                NASA([1022.93, 5000.00],
                     [ 1.57740760E+01,  4.21046677E-02, -1.66214930E-05,
                       3.10460185E-09, -2.20397412E-13,  9.75616541E+03,
                      -5.90966563E+01])))

species(name=u'S(2910)',
        atoms='H:12 C:9',
        thermo=(NASA([100.00, 981.00],
                     [ 9.48507256E-01,  4.33446535E-02,  7.04359196E-05,
                      -1.16293207E-07,  4.56985558E-11,  1.54649135E+04,
                       2.52602218E+01]),
                NASA([981.00, 5000.00],
                     [ 1.60153504E+01,  4.06074402E-02, -1.51306127E-05,
                       2.84976111E-09, -2.07934103E-13,  9.68440838E+03,
                      -6.15350664E+01])))

species(name=u'S(2996)',
        atoms='H:13 C:10',
        thermo=(NASA([100.00, 1637.26],
                     [ 2.87179558E-02,  8.19008576E-02, -3.78215733E-05,
                       3.53593735E-09,  8.99568467E-13,  1.18083830E+04,
                       2.72174820E+01]),
                NASA([1637.26, 5000.00],
                     [ 2.29591379E+01,  4.50551879E-02, -2.16330004E-05,
                       4.09765539E-09, -2.78490076E-13,  1.72961556E+03,
                      -1.02562734E+02])))

species(name=u'S(3016)',
        atoms='H:11 C:9',
        thermo=(NASA([100.00, 984.31],
                     [ 6.68034841E-01,  5.37298117E-02,  3.42943822E-05,
                      -7.88896963E-08,  3.28670173E-11,  2.08673394E+04,
                       2.71380034E+01]),
                NASA([984.31, 5000.00],
                     [ 1.59959777E+01,  3.85392064E-02, -1.43300221E-05,
                       2.65479923E-09, -1.90601107E-13,  1.55682331E+04,
                      -5.81579618E+01])))

species(name=u'S(3055)',
        atoms='H:14 C:10',
        thermo=(NASA([100.00, 1015.96],
                     [-3.04208179E-01,  7.49867461E-02,  7.06992940E-06,
                      -5.67495468E-08,  2.52395255E-11,  3.97968286E+03,
                       3.19838748E+01]),
                NASA([1015.96, 5000.00],
                     [ 1.79904052E+01,  4.76930761E-02, -1.86810396E-05,
                       3.48836134E-09, -2.48182511E-13, -2.04637536E+03,
                      -6.79290595E+01])))

species(name=u'S(3155)',
        atoms='H:12 C:9',
        thermo=(NASA([100.00, 1017.58],
                     [ 3.65169601E-01,  6.28754435E-02,  1.03169049E-05,
                      -5.21973279E-08,  2.26242597E-11,  6.67690874E+03,
                       2.66688171E+01]),
                NASA([1017.58, 5000.00],
                     [ 1.55880236E+01,  4.20658362E-02, -1.65416703E-05,
                       3.09247589E-09, -2.20013118E-13,  1.55811948E+03,
                      -5.69669056E+01])))

species(name=u'S(3222)',
        atoms='H:11 C:9',
        thermo=(NASA([100.00, 1602.33],
                     [ 9.30377533E-01,  6.50576200E-02, -2.25974745E-05,
                      -3.24285802E-09,  2.09566153E-12,  1.46117138E+04,
                       2.17813212E+01]),
                NASA([1602.33, 5000.00],
                     [ 1.81035674E+01,  4.26349935E-02, -2.07489363E-05,
                       3.95234205E-09, -2.69570505E-13,  6.48333634E+03,
                      -7.73569104E+01])))

species(name=u'S(3254)',
        atoms='H:14 C:10',
        thermo=(NASA([100.00, 1050.56],
                     [-2.60889849E-01,  7.48987323E-02,  2.18853410E-06,
                      -4.80327076E-08,  2.10296141E-11, -6.15139166E+03,
                       3.13429015E+01]),
                NASA([1050.56, 5000.00],
                     [ 1.74393401E+01,  4.90551394E-02, -2.02369072E-05,