units(length='cm', time='s', quantity='mol', act_energy='kcal/mol')

ideal_gas(name='gas',
          elements="H D T C Ci O Oi N Ne Ar He Si S Cl X",
          species="""n-heptane   Ar          He          Ne
                     N2          C2H4(2)     C4H8-1(3)   C4H8-2(4)
                     C4H6(7)     H2(68)      C6H8(111)   C8H10(114)
                     S(181)      S(192)      S(203)      S(276)
                     S(321)      C8H10(413)  C8H11(419)  S(589)
                     S(620)      S(624)      C7H9(673)   S(687)
                     S(725)      S(931)      S(1011)     S(1080)
                     S(1170)     S(1350)     C5H8(1362)  S(1363)
                     S(1497)     C5H7(1600)  S(1944)     S(2019)
                     S(2250)     S(2367)     S(2418)     S(2484)
                     S(2485)     S(2843)     S(3003)     S(3062)
                     S(3399)     C5H8(3887)""",
          reactions='gas-*',
          initial_state=state(temperature=300.0, pressure=OneAtm))

ideal_interface(name='surface1',
                elements="H D T C Ci O Oi N Ne Ar He Si S Cl X",
                species="""X(1)        HX(5)       C2H3X(37)   C4H7X(47)
                          C4H5X(80)   C4H5X(81)   C6H7X(132)  C6H7X(134)
                          SX(335)     SX(337)     SX(338)     SX(340)
                          SX(341)     SX(342)     SX(344)     C8H9X(414)
                          C8H9X(416)  SX(452)     SX(482)     SX(483)
                          SX(577)     SX(582)     SX(583)     SX(618)
                          SX(619)     C7H9X(622)  SX(638)     C5H7X(641)
                          SX(717)     SX(815)     C5H7X(902)  SX(903)
                          SX(905)     SX(908)     SX(909)     SX(910)
                          SX(1034)    SX(1037)    SX(1038)    SX(1039)
                          SX(1163)    SX(1167)    SX(1168)    SX(1191)
                          SX(1192)    SX(1204)    SX(1289)    SX(1292)
                          SX(1293)    SX(1294)    SX(1295)    SX(1327)
                          SX(1336)    SX(1345)    SX(1356)    SX(1357)
                          SX(1394)    SX(1395)    SX(1396)    SX(1397)
                          SX(1505)    SX(1507)    SX(1508)    SX(1617)
                          SX(1618)    SX(1962)    SX(1964)    SX(2083)
                          SX(2094)    SX(2127)    SX(2128)    SX(2211)
                          SX(2215)    SX(2230)    SX(2231)    SX(2244)
                          SX(2299)    SX(2319)    SX(2398)    SX(2498)
                          SX(2499)    SX(2654)    SX(2655)    SX(2822)
                          SX(2952)    SX(2979)    SX(3055)    SX(3059)
                          SX(3121)    SX(3122)    SX(3170)    SX(3172)
                          SX(3271)    SX(3316)    SX(3318)    SX(3393)
                          SX(3397)    SX(3485)    SX(3487)    SX(3504)
                          SX(3580)    SX(3582)    SX(3583)    SX(3584)
                          SX(3677)    SX(3882)    SX(4478)    SX(4482)
                          SX(4737)    SX(4792)    SX(4867)    SX(4869)""",
                site_density=2.72e-09,
                phases="gas",
          reactions='surface1-*',
                initial_state=state(temperature=300.0, pressure=OneAtm))

#-------------------------------------------------------------------------------
# Element data
#-------------------------------------------------------------------------------

element(symbol=u'X', atomic_mass=195.083)
element(symbol=u'Ci', atomic_mass=13.003)
element(symbol=u'D', atomic_mass=2.014)
element(symbol=u'Oi', atomic_mass=18.0)
element(symbol=u'T', atomic_mass=3.016)
#-------------------------------------------------------------------------------
# Species data
#-------------------------------------------------------------------------------

species(name=u'n-heptane',
        atoms='H:16 C:7',
        thermo=(NASA([100.00, 1262.73],
                     [-2.91681405E-03,  7.69373649E-02, -3.48025563E-05,
                       1.86095180E-09,  2.01573617E-12, -2.57829342E+04,
                       3.00312148E+01]),
                NASA([1262.73, 5000.00],
                     [ 1.38377915E+01,  4.85945016E-02, -1.95474548E-05,
                       3.52837178E-09, -2.39064676E-13, -3.05141556E+04,
                      -4.48642836E+01])))

species(name=u'Ar',
        atoms='Ar:1',
        thermo=(NASA([200.00, 1000.00],
                     [ 2.50000000E+00,  0.00000000E+00,  0.00000000E+00,
                       0.00000000E+00,  0.00000000E+00, -7.45375000E+02,
                       4.37967000E+00]),
                NASA([1000.00, 6000.00],
                     [ 2.50000000E+00,  0.00000000E+00,  0.00000000E+00,
                       0.00000000E+00,  0.00000000E+00, -7.45375000E+02,
                       4.37967000E+00])))

species(name=u'He',
        atoms='He:1',
        thermo=(NASA([200.00, 1000.00],
                     [ 2.50000000E+00,  0.00000000E+00,  0.00000000E+00,
                       0.00000000E+00,  0.00000000E+00, -7.45375000E+02,
                       9.28724000E-01]),
                NASA([1000.00, 6000.00],
                     [ 2.50000000E+00,  0.00000000E+00,  0.00000000E+00,
                       0.00000000E+00,  0.00000000E+00, -7.45375000E+02,
                       9.28724000E-01])))

species(name=u'Ne',
        atoms='Ne:1',
        thermo=(NASA([200.00, 1000.00],
                     [ 2.50000000E+00,  0.00000000E+00,  0.00000000E+00,
                       0.00000000E+00,  0.00000000E+00, -7.45375000E+02,
                       3.35532000E+00]),
                NASA([1000.00, 6000.00],
                     [ 2.50000000E+00,  0.00000000E+00,  0.00000000E+00,
                       0.00000000E+00,  0.00000000E+00, -7.45375000E+02,
                       3.35532000E+00])))

species(name=u'N2',
        atoms='N:2',
        thermo=(NASA([200.00, 1000.00],
                     [ 3.53101000E+00, -1.23661000E-04, -5.02999000E-07,
                       2.43531000E-09, -1.40881000E-12, -1.04698000E+03,
                       2.96747000E+00]),
                NASA([1000.00, 6000.00],
                     [ 2.95258000E+00,  1.39690000E-03, -4.92632000E-07,
                       7.86010000E-11, -4.60755000E-15, -9.23949000E+02,
                       5.87189000E+00])))

species(name=u'C2H4(2)',
        atoms='H:4 C:2',
        thermo=(NASA([100.00, 979.36],
                     [ 3.97471606E+00, -4.75844285E-03,  4.16783770E-05,
                      -4.51392516E-08,  1.54224761E-11,  4.91540746E+03,
                       3.62430844E+00]),
                NASA([979.36, 5000.00],
                     [ 3.55660610E+00,  1.10627464E-02, -4.17019079E-06,
                       7.85586770E-10, -5.70060829E-14,  4.32046489E+03,
                       2.17719479E+00])))

species(name=u'C4H8-1(3)',
        atoms='H:8 C:4',
        thermo=(NASA([100.00, 1007.28],
                     [ 2.58772906E+00,  2.32777969E-02,  1.93412349E-05,
                      -3.55496333E-08,  1.36906009E-11, -1.91872926E+03,
                       1.45750618E+01]),
                NASA([1007.28, 5000.00],
                     [ 7.20517168E+00,  2.36361568E-02, -9.03150028E-06,
                       1.65392666E-09, -1.16019260E-13, -3.79733937E+03,
                      -1.24426257E+01])))

species(name=u'C4H8-2(4)',
        atoms='H:8 C:4',
        thermo=(NASA([100.00, 1157.79],
                     [ 2.51998327E+00,  2.76812799E-02,  9.43783469E-07,
                      -1.25009101E-08,  4.67144666E-12, -3.34374767E+03,
                       1.30195623E+01]),
                NASA([1157.79, 5000.00],
                     [ 6.04225708E+00,  2.60072350E-02, -1.04843374E-05,
                       1.90880922E-09, -1.30600505E-13, -4.86276511E+03,
                      -7.52715109E+00])))

species(name=u'C4H6(7)',
        atoms='H:6 C:4',
        thermo=(NASA([100.00, 946.05],
                     [ 2.80599310E+00,  1.02584471E-02,  6.17260255E-05,
                      -9.01642687E-08,  3.59116961E-11,  1.16584972E+04,
                       1.20621434E+01]),
                NASA([946.05, 5000.00],
                     [ 1.24693720E+01,  1.00553901E-02, -2.41206872E-06,
                       4.57077303E-10, -3.93160571E-14,  8.01077795E+03,
                      -4.36374720E+01])))

species(name=u'H2(68)',
        atoms='H:2',
        thermo=(NASA([100.00, 1959.08],
                     [ 3.43536412E+00,  2.12710353E-04, -2.78625043E-07,
                       3.40267167E-10, -7.76031998E-14, -1.03135984E+03,
                      -3.90841732E+00]),
                NASA([1959.08, 5000.00],
                     [ 2.78816583E+00,  5.87640942E-04,  1.59010417E-07,
                      -5.52739026E-11,  4.34310984E-15, -5.96144270E+02,
                       1.12732655E-01])))

species(name=u'C6H8(111)',
        atoms='H:8 C:6',
        thermo=(NASA([100.00, 972.94],
                     [ 1.82686070E+00,  3.47046353E-02,  2.41070171E-05,
                      -5.44847920E-08,  2.29388832E-11,  1.99100661E+04,
                       1.81393315E+01]),
                NASA([972.94, 5000.00],
                     [ 1.21686202E+01,  2.40472785E-02, -8.58151834E-06,
                       1.57034031E-09, -1.12795334E-13,  1.63897115E+04,
                      -3.92195169E+01])))

species(name=u'C8H10(114)',
        atoms='H:10 C:8',
        thermo=(NASA([100.00, 1006.91],
                     [ 9.59099136E-01,  5.26052795E-02,  1.05118295E-05,
                      -4.60808495E-08,  1.99632153E-11,  2.84660811E+04,
                       2.42924801E+01]),
                NASA([1006.91, 5000.00],
                     [ 1.34171277E+01,  3.60526403E-02, -1.38971709E-05,
                       2.56761905E-09, -1.81631637E-13,  2.42875578E+04,
                      -4.41873377E+01])))

species(name=u'S(181)',
        atoms='H:14 C:10',
        thermo=(NASA([100.00, 968.43],
                     [-1.78657670E-01,  6.27636610E-02,  6.13275679E-05,
                      -1.25568699E-07,  5.26247225E-11,  1.23467547E+04,
                       3.16624716E+01]),
                NASA([968.43, 5000.00],
                     [ 2.28001036E+01,  3.95488872E-02, -1.37666755E-05,
                       2.57450736E-09, -1.90686366E-13,  4.53405575E+03,
                      -9.58178615E+01])))

species(name=u'S(192)',
        atoms='H:16 C:12',
        thermo=(NASA([100.00, 980.77],
                     [-2.21845665E+00,  1.15202302E-01, -4.46058253E-05,
                      -2.89292454E-08,  2.08193354E-11,  3.97133228E+04,
                       4.48687920E+01]),
                NASA([980.77, 5000.00],
                     [ 2.59409200E+01,  4.89148103E-02, -1.74910345E-05,
                       3.12129948E-09, -2.18247198E-13,  3.18543069E+04,
                      -1.02343316E+02])))

species(name=u'S(203)',
        atoms='H:16 C:12',
        thermo=(NASA([100.00, 989.29],
                     [-1.49871027E+00,  8.97231513E-02,  3.13728211E-05,
                      -1.05849951E-07,  4.65472901E-11,  2.08342656E+04,
                       3.86324941E+01]),
                NASA([989.29, 5000.00],
                     [ 2.71231573E+01,  4.82447418E-02, -1.83146882E-05,
                       3.49879125E-09, -2.57494969E-13,  1.15378770E+04,
                      -1.17506583E+02])))

species(name=u'S(276)',
        atoms='H:15 C:12',
        thermo=(NASA([100.00, 994.96],
                     [-9.10525753E-01,  7.23065908E-02,  7.86529115E-05,
                      -1.50118451E-07,  6.04728055E-11,  3.34535297E+04,
                       3.72742060E+01]),
                NASA([994.96, 5000.00],
                     [ 2.59409054E+01,  5.12026508E-02, -2.04595453E-05,
                       4.01923029E-09, -2.99921063E-13,  2.38116792E+04,
                      -1.13734786E+02])))

species(name=u'S(321)',
        atoms='H:16 C:12',
        thermo=(NASA([100.00, 1011.71],
                     [-1.20303342E+00,  8.13255676E-02,  5.51392531E-05,
                      -1.24057147E-07,  5.05122313E-11,  1.92626563E+04,
                       3.67681708E+01]),
                NASA([1011.71, 5000.00],
                     [ 2.55049272E+01,  5.47778999E-02, -2.26996210E-05,
                       4.46368808E-09, -3.29899575E-13,  9.81303791E+03,
                      -1.12386527E+02])))

species(name=u'C8H10(413)',
        atoms='H:10 C:8',
        thermo=(NASA([100.00, 977.35],
                     [ 1.20173571E+00,  3.27272819E-02,  9.65447107E-05,
                      -1.46973565E-07,  5.73039020E-11,  3.66668175E+04,
                       1.86379877E+01]),
                NASA([977.35, 5000.00],
                     [ 1.91455040E+01,  3.13149575E-02, -1.18305343E-05,
                       2.35397473E-09, -1.80727667E-13,  2.97193290E+04,
                      -8.51179199E+01])))

species(name=u'C8H11(419)',
        atoms='H:11 C:8',
        thermo=(NASA([100.00, 956.07],
                     [-1.09891059E-02,  7.24055483E-02, -1.79539071E-05,
                      -3.40698735E-08,  2.01060051E-11,  2.28381705E+04,
                       2.77858466E+01]),
                NASA([956.07, 5000.00],
                     [ 1.94580865E+01,  2.89872242E-02, -9.50968002E-06,
                       1.65368217E-09, -1.16131753E-13,  1.73770137E+04,
                      -7.43579100E+01])))

species(name=u'S(589)',
        atoms='H:16 C:12',
        thermo=(NASA([100.00, 990.94],
                     [-1.53673879E+00,  9.50296733E-02,  8.13325447E-06,
                      -7.82185025E-08,  3.63989841E-11,  2.10168816E+04,
                       3.81765950E+01]),
                NASA([990.94, 5000.00],
                     [ 2.49483558E+01,  5.05143791E-02, -1.89287732E-05,
                       3.52660923E-09, -2.53947844E-13,  1.27044184E+04,
                      -1.04814787E+02])))

species(name=u'S(620)',
        atoms='H:15 C:12',
        thermo=(NASA([100.00, 970.90],
                     [-1.71520867E+00,  9.95432566E-02, -4.74357209E-06,
                      -7.04390643E-08,  3.56211412E-11,  3.34415592E+04,
                       3.83477263E+01]),
                NASA([970.90, 5000.00],
                     [ 2.67411184E+01,  4.44003661E-02, -1.54835680E-05,
                       2.80861775E-09, -2.01631064E-13,  2.49892981E+04,
                      -1.13168941E+02])))

species(name=u'S(624)',
        atoms='H:16 C:12',
        thermo=(NASA([100.00, 996.00],
                     [-1.69141437E+00,  1.00296023E-01, -9.12164045E-06,
                      -6.02514703E-08,  3.01240499E-11,  2.33643250E+04,
                       4.04318183E+01]),
                NASA([996.00, 5000.00],
                     [ 2.50042171E+01,  4.98983348E-02, -1.87841690E-05,
                       3.48686685E-09, -2.49705538E-13,  1.52285473E+04,
                      -1.02398792E+02])))

species(name=u'C7H9(673)',
        atoms='H:9 C:7',
        thermo=(NASA([100.00, 960.10],
                     [ 1.94183052E+00,  2.40649774E-02,  7.97952916E-05,
                      -1.18026725E-07,  4.61192248E-11,  2.16204187E+04,
                       2.19868571E+01]),
                NASA([960.10, 5000.00],
                     [ 1.38393996E+01,  2.78185296E-02, -9.37614248E-06,
                       1.73813373E-09, -1.29114199E-13,  1.68783004E+04,
                      -4.77260465E+01])))

species(name=u'S(687)',
        atoms='H:15 C:12',
        thermo=(NASA([100.00, 984.37],
                     [-5.37896420E-01,  6.91571916E-02,  6.78331849E-05,
                      -1.32481351E-07,  5.38778566E-11,  3.40474077E+04,
                       3.25829999E+01]),
                NASA([984.37, 5000.00],
                     [ 2.21119676E+01,  5.17760824E-02, -1.94438000E-05,
                       3.67256768E-09, -2.68128755E-13,  2.59711429E+04,
                      -9.47052603E+01])))

species(name=u'S(725)',
        atoms='H:16 C:12',
        thermo=(NASA([100.00, 992.60],
                     [-2.02051020E+00,  1.08734835E-01, -2.89711942E-05,
                      -4.32763322E-08,  2.51062468E-11,  1.92512215E+04,
                       3.85793690E+01]),
                NASA([992.60, 5000.00],
                     [ 2.62576693E+01,  4.80482550E-02, -1.77622499E-05,
                       3.26163402E-09, -2.32284753E-13,  1.10132322E+04,
                      -1.10855289E+02])))

species(name=u'S(931)',
        atoms='H:15 C:12',
        thermo=(NASA([100.00, 992.27],
                     [-1.38340081E+00,  8.84602237E-02,  3.06336545E-05,
                      -1.02014839E-07,  4.45162985E-11,  3.06168321E+04,
                       3.52683180E+01]),
                NASA([992.27, 5000.00],
                     [ 2.55878851E+01,  5.06718152E-02, -1.94766159E-05,
                       3.69864365E-09, -2.69824719E-13,  2.17720278E+04,
                      -1.12240478E+02])))

species(name=u'S(1011)',
        atoms='H:16 C:12',
        thermo=(NASA([100.00, 1013.91],
                     [-1.68456148E+00,  9.75829838E-02,  6.75024727E-06,
                      -7.54669033E-08,  3.43459639E-11,  1.64263299E+04,
                       3.47931908E+01]),
                NASA([1013.91, 5000.00],
                     [ 2.51858810E+01,  5.41893443E-02, -2.16834289E-05,
                       4.13524866E-09, -2.99152202E-13,  7.75908379E+03,
                      -1.11083545E+02])))

species(name=u'S(1080)',
        atoms='H:15 C:12',
        thermo=(NASA([100.00, 942.04],
                     [-1.58947506E+00,  9.96790343E-02, -9.80779895E-06,
                      -6.55996910E-08,  3.51324607E-11,  3.07361694E+04,
                       4.09976334E+01]),
                NASA([942.04, 5000.00],
                     [ 2.50044823E+01,  4.44935724E-02, -1.38685304E-05,
                       2.33330510E-09, -1.61367813E-13,  2.31638486E+04,
                      -9.93121534E+01])))

species(name=u'S(1170)',
        atoms='H:16 C:12',
        thermo=(NASA([100.00, 1013.91],
                     [-1.68456148E+00,  9.75829838E-02,  6.75024727E-06,
                      -7.54669033E-08,  3.43459639E-11,  1.64263299E+04,
                       3.47931908E+01]),
                NASA([1013.91, 5000.00],
                     [ 2.51858810E+01,  5.41893443E-02, -2.16834289E-05,
                       4.13524866E-09, -2.99152202E-13,  7.75908379E+03,
                      -1.11083545E+02])))

species(name=u'S(1350)',
        atoms='H:10 C:7',
        thermo=(NASA([100.00, 955.82],
                     [ 1.48815239E+00,  3.18444302E-02,  7.31362909E-05,
                      -1.19276583E-07,  4.82830646E-11,  8.79580288E+03,
                       2.11106153E+01]),
                NASA([955.82, 5000.00],
                     [ 1.72474758E+01,  2.46393030E-02, -7.74842595E-06,
                       1.44125128E-09, -1.09978719E-13,  3.09970252E+03,
                      -6.82445295E+01])))

species(name=u'C5H8(1362)',
        atoms='H:8 C:5',
        thermo=(NASA([100.00, 1049.25],
                     [ 2.01062155E+00,  3.15407187E-02,  2.07789480E-05,
                      -4.44088985E-08,  1.72419112E-11,  7.01383967E+03,
                       1.65768346E+01]),
                NASA([1049.25, 5000.00],
                     [ 1.14809937E+01,  2.45641673E-02, -1.08867259E-05,
                       2.16707025E-09, -1.59145781E-13,  3.42314914E+03,
                      -3.72078866E+01])))

species(name=u'S(1363)',
        atoms='H:10 C:7',
        thermo=(NASA([100.00, 1013.93],
                     [ 1.13620462E+00,  5.07839825E-02,  1.86857674E-06,
                      -3.40292091E-08,  1.53985393E-11,  1.56009780E+04,
                       2.31184760E+01]),
                NASA([1013.93, 5000.00],
                     [ 1.25606010E+01,  3.32052103E-02, -1.27956037E-05,
                       2.35356470E-09, -1.65606655E-13,  1.18711633E+04,
                      -3.91241510E+01])))

species(name=u'S(1497)',
        atoms='H:10 C:7',
        thermo=(NASA([100.00, 980.91],
                     [ 1.65334290E+00,  3.30618161E-02,  5.62240703E-05,
                      -9.16633895E-08,  3.59156187E-11,  7.42935681E+03,
                       2.14648871E+01]),
                NASA([980.91, 5000.00],
                     [ 1.32507895E+01,  3.16428835E-02, -1.17556292E-05,
                       2.21479726E-09, -1.61719039E-13,  2.94719555E+03,
                      -4.55120499E+01])))

species(name=u'C5H7(1600)',
        atoms='H:7 C:5',
        thermo=(NASA([100.00, 1003.59],
                     [ 2.29630533E+00,  2.26585803E-02,  4.36537425E-05,
                      -6.94361309E-08,  2.66726208E-11,  2.12045166E+04,
                       1.64081109E+01]),
                NASA([1003.59, 5000.00],
                     [ 1.19245610E+01,  2.09706159E-02, -8.65728234E-06,
                       1.73820062E-09, -1.30975467E-13,  1.74243878E+04,
                      -3.92819242E+01])))

species(name=u'S(1944)',
        atoms='H:14 C:10',
        thermo=(NASA([100.00, 1026.38],
                     [-2.04485560E-01,  6.87984832E-02,  3.42640846E-05,
                      -8.47374871E-08,  3.42039564E-11,  1.03310869E+04,
                       2.80524687E+01]),
                NASA([1026.38, 5000.00],
                     [ 1.86284987E+01,  5.10531563E-02, -2.11321735E-05,
                       4.07064082E-09, -2.94617581E-13,  3.53386199E+03,
                      -7.75757937E+01])))

species(name=u'S(2019)',
        atoms='H:10 C:7',
        thermo=(NASA([100.00, 1013.93],
                     [ 1.13620462E+00,  5.07839825E-02,  1.86857674E-06,
                      -3.40292091E-08,  1.53985393E-11,  1.56009780E+04,
                       2.31184760E+01]),
                NASA([1013.93, 5000.00],
                     [ 1.25606010E+01,  3.32052103E-02, -1.27956037E-05,
                       2.35356470E-09, -1.65606655E-13,  1.18711633E+04,
                      -3.91241510E+01])))

species(name=u'S(2250)',
        atoms='H:13 C:10',
        thermo=(NASA([100.00, 976.25],
                     [ 2.44850415E-02,  5.63859714E-02,  7.92794649E-05,
                      -1.41928102E-07,  5.74393116E-11,  2.04708984E+04,
                       2.81369127E+01]),
                NASA([976.25, 5000.00],
                     [ 2.23687210E+01,  4.13694852E-02, -1.52419740E-05,
                       2.92184710E-09, -2.18042141E-13,  1.24610288E+04,
                      -9.78033799E+01])))

species(name=u'S(2367)',
        atoms='H:13 C:10',
        thermo=(NASA([100.00, 986.38],
                     [-1.54493551E-05,  6.58256267E-02,  3.11002907E-05,
                      -8.35076671E-08,  3.55086836E-11,  1.81700564E+04,
                       3.24482933E+01]),
                NASA([986.38, 5000.00],
                     [ 1.83909399E+01,  4.41789029E-02, -1.64765093E-05,
                       3.05235475E-09, -2.18908318E-13,  1.19669088E+04,
                      -6.90782445E+01])))

species(name=u'S(2418)',
        atoms='H:14 C:10',
        thermo=(NASA([100.00, 974.14],
                     [-4.98430854E-01,  7.37939716E-02,  2.71851067E-05,
                      -8.95987019E-08,  3.98718484E-11,  9.43089456E+03,
                       3.12086110E+01]),
                NASA([974.14, 5000.00],
                     [ 2.24683141E+01,  4.00995513E-02, -1.42625815E-05,
                       2.63940716E-09, -1.92019869E-13,  2.08049504E+03,
                      -9.37518546E+01])))

species(name=u'S(2484)',
        atoms='H:14 C:10',
        thermo=(NASA([100.00, 1020.53],
                     [-3.97088667E-01,  7.75162211E-02,  6.84060276E-07,
                      -5.05020494E-08,  2.30977837E-11,  1.21827946E+04,
                       3.09001989E+01]),
                NASA([1020.53, 5000.00],
                     [ 1.81749563E+01,  4.77343168E-02, -1.87621936E-05,
                       3.50079189E-09, -2.48591460E-13,  6.15234931E+03,
                      -7.00502669E+01])))

species(name=u'S(2485)',
        atoms='H:14 C:10',
        thermo=(NASA([100.00, 993.52],
                     [ 2.15843276E-01,  5.91483958E-02,  5.29942731E-05,
                      -1.03518063E-07,  4.15245382E-11,  1.26312914E+04,
                       3.01350656E+01]),
                NASA([993.52, 5000.00],
                     [ 1.73970636E+01,  4.82362593E-02, -1.84929210E-05,
                       3.47527858E-09, -2.50708945E-13,  6.34191811E+03,
                      -6.71135018E+01])))

species(name=u'S(2843)',
        atoms='H:12 C:8',
        thermo=(NASA([100.00, 1093.32],
                     [ 2.36637697E-01,  7.13806073E-02, -3.04205239E-05,
                      -5.26761999E-09,  5.54497945E-12,  1.11111992E+04,
                       2.69517569E+01]),
                NASA([1093.32, 5000.00],
                     [ 1.41535962E+01,  4.07049724E-02, -1.61040105E-05,
                       2.93544374E-09, -2.02595338E-13,  6.85832312E+03,
                      -4.69635767E+01])))

species(name=u'S(3003)',
        atoms='H:13 C:10',
        thermo=(NASA([100.00, 1637.26],
                     [ 2.87179558E-02,  8.19008576E-02, -3.78215733E-05,
                       3.53593735E-09,  8.99568467E-13,  1.18083830E+04,
                       2.72174820E+01]),
                NASA([1637.26, 5000.00],
                     [ 2.29591379E+01,  4.50551879E-02, -2.16330004E-05,
                       4.09765539E-09, -2.78490076E-13,  1.72961556E+03,
                      -1.02562734E+02])))

species(name=u'S(3062)',
        atoms='H:14 C:10',
        thermo=(NASA([100.00, 1015.96],
                     [-3.04208179E-01,  7.49867461E-02,  7.06992940E-06,
                      -5.67495468E-08,  2.52395255E-11,  3.97968286E+03,
                       3.19838748E+01]),
                NASA([1015.96, 5000.00],
                     [ 1.79904052E+01,  4.76930761E-02, -1.86810396E-05,
                       3.48836134E-09, -2.48182511E-13, -2.04637536E+03,
                      -6.79290595E+01])))

species(name=u'S(3399)',
        atoms='H:14 C:10',
        thermo=(NASA([100.00, 1050.56],
                     [-2.60889849E-01,  7.48987323E-02,  2.18853410E-06,
                      -4.80327076E-08,  2.10296141E-11, -6.15139166E+03,
                       3.13429015E+01]),
                NASA([1050.56, 5000.00],
                     [ 1.74393401E+01,  4.90551394E-02, -2.02369072E-05,
                       3.84465603E-09, -2.74218351E-13, -1.21633126E+04,
                      -6.58361981E+01])))

species(name=u'C5H8(3887)',
        atoms='H:8 C:5',
        thermo=(NASA([100.00, 1945.28],
                     [ 1.54057150E+00,  4.70674891E-02, -3.00891500E-05,
                       9.08792775E-09, -1.08388618E-12,  1.04128608E+04,
                       1.86285770E+01]),
                NASA([1945.28, 5000.00],
                     [ 1.57976301E+01,  1.77513582E-02, -7.48362302E-06,
                       1.34081097E-09, -8.82587923E-14,  4.86605187E+03,
                      -5.96402586E+01])))

species(name=u'X(1)',
        atoms='X:1',
        thermo=(NASA([100.00, 1554.80],
                     [ 7.10139498E-03, -4.25619522E-05,  8.98533016E-08,
                      -7.80193649E-11,  2.32465471E-14, -8.76101712E-01,
                      -3.11211229E-02]),
                NASA([1554.80, 5000.00],
                     [ 1.60299900E-01, -2.52235409E-04,  1.14181275E-07,
                      -1.21471653E-11,  3.85790025E-16, -7.08100885E+01,
                      -9.09527530E-01])))

species(name=u'HX(5)',
        atoms='H:1 X:1',
        thermo=(NASA([100.00, 952.91],
                     [-3.80965452E-01,  5.47228709E-03,  2.60912778E-06,
                      -9.64961980E-09,  4.63946753E-12, -7.19163862E+02,
                       1.01725550E+00]),
                NASA([952.91, 5000.00],
                     [ 2.80339655E+00, -5.41047017E-04,  4.99507978E-07,
                      -7.54963647E-11,  3.06772366E-15, -1.65991328E+03,
                      -1.59436787E+01])))

species(name=u'C2H3X(37)',
        atoms='H:3 C:2 X:1',
        thermo=(NASA([100.00, 928.62],
                     [ 3.83091018E+00, -8.76381562E-03,  6.97956896E-05,
                      -8.67969174E-08,  3.33218121E-11,  1.10289552E+04,
                      -1.81151753E+01]),
                NASA([928.62, 5000.00],
                     [ 8.78054562E+00,  1.92497720E-03,  8.25825014E-07,
                      -1.63749818E-10,  5.71728318E-15,  8.72955203E+03,
                      -4.90588618E+01])))

species(name=u'C4H7X(47)',
        atoms='H:7 C:4 X:1',
        thermo=(NASA([100.00, 984.27],
                     [ 2.62894525E+00,  1.98268868E-02,  3.32348848E-05,
                      -5.27966654E-08,  2.03669508E-11,  1.72234674E+03,
                      -9.11738219E+00]),
                NASA([984.27, 5000.00],
                     [ 8.50219213E+00,  2.14492211E-02, -8.08467087E-06,
                       1.50188932E-09, -1.07732976E-13, -6.68584349E+02,
                      -4.36317384E+01])))

species(name=u'C4H5X(80)',
        atoms='H:5 C:4 X:1',
        thermo=(NASA([100.00, 936.52],
                     [ 2.68471723E+00,  1.36244496E-02,  5.32591849E-05,
                      -8.32912448E-08,  3.41499374E-11,  1.31221853E+04,
                      -1.06510487E+01]),
                NASA([936.52, 5000.00],
                     [ 1.29012266E+01,  8.96921861E-03, -1.71920076E-06,
                       2.89744517E-10, -2.58686364E-14,  9.49914640E+03,
                      -6.83963397E+01])))

species(name=u'C4H5X(81)',
        atoms='H:5 C:4 X:1',
        thermo=(NASA([100.00, 928.63],
                     [ 2.64232495E+00,  8.31109593E-03,  8.12146261E-05,
                      -1.21398701E-07,  4.98630759E-11,  1.83050941E+04,
                      -1.03932963E+01]),