units(length='cm', time='s', quantity='mol', act_energy='kcal/mol')

ideal_gas(name='gas',
          elements="H D T C Ci O Oi N Ne Ar He Si S Cl X",
          species="""n-heptane   Ar          He          Ne
                     N2          C2H4(2)     C4H8-1(3)   C4H8-2(4)
                     C4H6(7)     C6H8(9)     C3H6(32)    H2(68)
                     C6H10(258)  C5H8c(286)  C8H12(596)  C2H6(894)
                     C8H14(907)  C8H14(910)  C8H14(911)  C8H14(913)
                     CH4(917)    C7H12(942)  C7H12(949)  C5H10(978)
                     C4H8(1043)  S(1069)     S(1269)     S(2347)
                     S(2402)     S(2488)     S(2724)     S(3643)
                     S(3693)     S(4451)     S(6196)     S(6232)
                     S(6423)     S(6515)     S(7163)     S(8196)""",
          reactions='gas-*',
          initial_state=state(temperature=300.0, pressure=OneAtm))

ideal_interface(name='surface1',
                elements="H D T C Ci O Oi N Ne Ar He Si S Cl X",
                species="""X(1)        HX(5)       C2H3X(37)   allylX(38)
                          CH3X(39)    C2H5X(40)   C4H7X(41)   C4H7X(42)
                          C4H7X(43)   C4H7X(44)   C3H5X(45)   C4H7X(46)
                          C4H7X(47)   C6H11X(72)  C6H11X(73)  C4H5X(80)
                          C4H5X(81)   C6H9X(98)   SX(109)     SX(110)
                          C6H9X(115)  C6H7X(142)  C6H7X(143)  C6H7X(144)
                          C6H9X(169)  SX(219)     C6H7X(233)  C6H9X(249)
                          C5H7X(252)  C6H9X(291)  C6H9X(292)  C6H9X(293)
                          SX(326)     SX(327)     SX(328)     SX(329)
                          SX(330)     SX(331)     SX(332)     C6H9X(419)
                          C6H9X(447)  C6H9X(448)  C6H9X(449)  C6H9X(526)
                          C3H5X(529)  SX(532)     C4H7X(563)  SX(566)
                          SX(567)     SX(592)     SX(619)     C6H9X(648)
                          C6H9X(649)  SX(651)     C6H9X(682)  SX(684)
                          SX(716)     C6H9X(746)  SX(749)     C6H9X(782)
                          C5H7X(854)  SX(896)     C5H9X(922)  C5H9X(923)
                          SX(953)     SX(958)     SX(959)     SX(960)
                          SX(961)     SX(993)     SX(1056)    SX(1119)
                          SX(1137)    SX(1146)    SX(1193)    SX(1372)
                          SX(1456)    SX(1514)    SX(1610)    SX(1611)
                          SX(1620)    SX(1665)    SX(1709)    SX(1710)
                          SX(1714)    SX(1775)    SX(1777)    SX(1810)
                          SX(1811)    SX(1973)    SX(2025)    SX(2193)
                          SX(2195)    SX(2234)    SX(2253)    SX(2306)
                          SX(2335)    SX(2336)    SX(2337)    SX(2339)
                          SX(2390)    SX(2394)    SX(2422)    SX(2426)
                          SX(2453)    SX(2514)    SX(2573)    SX(2574)
                          SX(2575)    SX(2576)    SX(2577)    SX(2613)
                          SX(2712)    SX(2742)    SX(2771)    SX(2831)
                          SX(2832)    SX(2866)    SX(2867)    SX(2984)
                          SX(2986)    SX(3014)    SX(3040)    SX(3041)
                          SX(3181)    SX(3236)    SX(3237)    SX(3266)
                          SX(3267)    SX(3318)    SX(3345)    SX(3402)
                          SX(3431)    SX(3634)    SX(3661)    SX(3684)
                          SX(3829)    SX(3869)    SX(3870)    SX(4045)
                          SX(4046)    SX(4047)    SX(4048)    SX(4049)
                          SX(4301)    SX(4332)    SX(4333)    SX(4442)
                          SX(4561)    SX(4562)    SX(4713)    SX(4768)
                          SX(4862)    SX(4863)    SX(4955)    SX(4973)
                          SX(4974)    SX(4985)    SX(5012)    SX(5076)
                          SX(5224)    SX(5307)    SX(5308)    SX(5339)
                          SX(5340)    SX(5367)    SX(5419)    SX(5450)
                          SX(5589)    SX(5633)    SX(5928)    SX(5929)
                          SX(5930)    SX(5931)    SX(5935)    SX(6012)
                          SX(6013)    SX(6019)    SX(6028)    SX(6029)
                          SX(6030)    SX(6047)    SX(6048)    SX(6070)
                          SX(6072)    SX(6073)    SX(6084)    SX(6085)
                          SX(6120)    SX(6130)    SX(6131)    SX(6140)
                          SX(6141)    SX(6150)    SX(6151)    SX(6152)
                          SX(6161)    SX(6162)    SX(6169)    SX(6190)
                          SX(6191)    SX(6199)    SX(6208)    SX(6209)
                          SX(6226)    SX(6227)    SX(6237)    SX(6238)
                          SX(6239)    SX(6247)    SX(6248)    SX(6259)
                          SX(6260)    SX(6294)    SX(6295)    SX(6296)
                          SX(6297)    SX(6306)    SX(6307)    SX(6316)
                          SX(6317)    SX(6318)    SX(6328)    SX(6333)
                          SX(6379)    SX(6387)    SX(6388)    SX(6396)
                          SX(6397)    SX(6398)    SX(6418)    SX(6427)
                          SX(6428)    SX(6488)    SX(6489)    SX(6536)
                          SX(6537)    SX(6572)    SX(6581)    SX(6582)
                          SX(6644)    SX(6645)    SX(6703)    SX(6854)
                          SX(6856)    SX(6885)    SX(6892)    SX(6897)
                          SX(6904)    SX(6905)    SX(6933)    SX(6944)
                          SX(6945)    SX(6946)    SX(6953)    SX(6991)
                          SX(6992)    SX(7014)    SX(7015)    SX(7094)
                          SX(7095)    SX(7210)    SX(7212)    SX(7470)
                          SX(7497)    SX(7512)    SX(7614)    SX(7885)
                          SX(8134)    SX(8231)    SX(8545)    SX(8546)
                          SX(8636)    SX(8637)    SX(8810)    SX(9431)
                          SX(9437)    SX(9537)    SX(10717)   SX(10718)
                          SX(11001)""",
                site_density=2.72e-09,
                phases="gas",
          reactions='surface1-*',
                initial_state=state(temperature=300.0, pressure=OneAtm))

#-------------------------------------------------------------------------------
# Element data
#-------------------------------------------------------------------------------

element(symbol=u'X', atomic_mass=195.083)
element(symbol=u'Ci', atomic_mass=13.003)
element(symbol=u'D', atomic_mass=2.014)
element(symbol=u'Oi', atomic_mass=18.0)
element(symbol=u'T', atomic_mass=3.016)
#-------------------------------------------------------------------------------
# Species data
#-------------------------------------------------------------------------------

species(name=u'n-heptane',
        atoms='H:16 C:7',
        thermo=(NASA([100.00, 1262.73],
                     [-2.91681405E-03,  7.69373649E-02, -3.48025563E-05,
                       1.86095180E-09,  2.01573617E-12, -2.57829342E+04,
                       3.00312148E+01]),
                NASA([1262.73, 5000.00],
                     [ 1.38377915E+01,  4.85945016E-02, -1.95474548E-05,
                       3.52837178E-09, -2.39064676E-13, -3.05141556E+04,
                      -4.48642836E+01])))

species(name=u'Ar',
        atoms='Ar:1',
        thermo=(NASA([200.00, 1000.00],
                     [ 2.50000000E+00,  0.00000000E+00,  0.00000000E+00,
                       0.00000000E+00,  0.00000000E+00, -7.45375000E+02,
                       4.37967000E+00]),
                NASA([1000.00, 6000.00],
                     [ 2.50000000E+00,  0.00000000E+00,  0.00000000E+00,
                       0.00000000E+00,  0.00000000E+00, -7.45375000E+02,
                       4.37967000E+00])))

species(name=u'He',
        atoms='He:1',
        thermo=(NASA([200.00, 1000.00],
                     [ 2.50000000E+00,  0.00000000E+00,  0.00000000E+00,
                       0.00000000E+00,  0.00000000E+00, -7.45375000E+02,
                       9.28724000E-01]),
                NASA([1000.00, 6000.00],
                     [ 2.50000000E+00,  0.00000000E+00,  0.00000000E+00,
                       0.00000000E+00,  0.00000000E+00, -7.45375000E+02,
                       9.28724000E-01])))

species(name=u'Ne',
        atoms='Ne:1',
        thermo=(NASA([200.00, 1000.00],
                     [ 2.50000000E+00,  0.00000000E+00,  0.00000000E+00,
                       0.00000000E+00,  0.00000000E+00, -7.45375000E+02,
                       3.35532000E+00]),
                NASA([1000.00, 6000.00],
                     [ 2.50000000E+00,  0.00000000E+00,  0.00000000E+00,
                       0.00000000E+00,  0.00000000E+00, -7.45375000E+02,
                       3.35532000E+00])))

species(name=u'N2',
        atoms='N:2',
        thermo=(NASA([200.00, 1000.00],
                     [ 3.53101000E+00, -1.23661000E-04, -5.02999000E-07,
                       2.43531000E-09, -1.40881000E-12, -1.04698000E+03,
                       2.96747000E+00]),
                NASA([1000.00, 6000.00],
                     [ 2.95258000E+00,  1.39690000E-03, -4.92632000E-07,
                       7.86010000E-11, -4.60755000E-15, -9.23949000E+02,
                       5.87189000E+00])))

species(name=u'C2H4(2)',
        atoms='H:4 C:2',
        thermo=(NASA([100.00, 979.36],
                     [ 3.97471606E+00, -4.75844285E-03,  4.16783770E-05,
                      -4.51392516E-08,  1.54224761E-11,  4.91540746E+03,
                       3.62430844E+00]),
                NASA([979.36, 5000.00],
                     [ 3.55660610E+00,  1.10627464E-02, -4.17019079E-06,
                       7.85586770E-10, -5.70060829E-14,  4.32046489E+03,
                       2.17719479E+00])))

species(name=u'C4H8-1(3)',
        atoms='H:8 C:4',
        thermo=(NASA([100.00, 1007.28],
                     [ 2.58772906E+00,  2.32777969E-02,  1.93412349E-05,
                      -3.55496333E-08,  1.36906009E-11, -1.91872926E+03,
                       1.45750618E+01]),
                NASA([1007.28, 5000.00],
                     [ 7.20517168E+00,  2.36361568E-02, -9.03150028E-06,
                       1.65392666E-09, -1.16019260E-13, -3.79733937E+03,
                      -1.24426257E+01])))

species(name=u'C4H8-2(4)',
        atoms='H:8 C:4',
        thermo=(NASA([100.00, 1157.79],
                     [ 2.51998327E+00,  2.76812799E-02,  9.43783469E-07,
                      -1.25009101E-08,  4.67144666E-12, -3.34374767E+03,
                       1.30195623E+01]),
                NASA([1157.79, 5000.00],
                     [ 6.04225708E+00,  2.60072350E-02, -1.04843374E-05,
                       1.90880922E-09, -1.30600505E-13, -4.86276511E+03,
                      -7.52715109E+00])))

species(name=u'C4H6(7)',
        atoms='H:6 C:4',
        thermo=(NASA([100.00, 946.05],
                     [ 2.80599310E+00,  1.02584471E-02,  6.17260255E-05,
                      -9.01642687E-08,  3.59116961E-11,  1.16584972E+04,
                       1.20621434E+01]),
                NASA([946.05, 5000.00],
                     [ 1.24693720E+01,  1.00553901E-02, -2.41206872E-06,
                       4.57077303E-10, -3.93160571E-14,  8.01077795E+03,
                      -4.36374720E+01])))

species(name=u'C6H8(9)',
        atoms='H:8 C:6',
        thermo=(NASA([100.00, 941.22],
                     [ 1.38427980E+00,  4.14411503E-02,  1.94287417E-05,
                      -6.16688700E-08,  2.86503633E-11,  1.76317461E+04,
                       1.93257509E+01]),
                NASA([941.22, 5000.00],
                     [ 1.69619680E+01,  1.57221707E-02, -4.10118367E-06,
                       6.95736344E-10, -5.26521484E-14,  1.29061672E+04,
                      -6.44097553E+01])))

species(name=u'C3H6(32)',
        atoms='H:6 C:3',
        thermo=(NASA([100.00, 983.75],
                     [ 3.31912102E+00,  8.17958674E-03,  3.34736123E-05,
                      -4.36193684E-08,  1.58213364E-11,  7.49325328E+02,
                       9.54025058E+00]),
                NASA([983.75, 5000.00],
                     [ 5.36755173E+00,  1.70743019E-02, -6.35107626E-06,
                       1.16619529E-09, -8.27620279E-14, -4.87138326E+02,
                      -4.54467529E+00])))

species(name=u'H2(68)',
        atoms='H:2',
        thermo=(NASA([100.00, 1959.08],
                     [ 3.43536412E+00,  2.12710353E-04, -2.78625043E-07,
                       3.40267167E-10, -7.76031998E-14, -1.03135984E+03,
                      -3.90841732E+00]),
                NASA([1959.08, 5000.00],
                     [ 2.78816583E+00,  5.87640942E-04,  1.59010417E-07,
                      -5.52739026E-11,  4.34310984E-15, -5.96144270E+02,
                       1.12732655E-01])))

species(name=u'C6H10(258)',
        atoms='H:10 C:6',
        thermo=(NASA([100.00, 1020.63],
                     [ 9.97427413E-01,  5.59777045E-02, -2.05880600E-05,
                      -1.17182304E-08,  8.13452041E-12,  6.30749855E+03,
                       2.38941836E+01]),
                NASA([1020.63, 5000.00],
                     [ 1.33828218E+01,  2.83661253E-02, -1.07663110E-05,
                       1.95749020E-09, -1.36589418E-13,  2.68926840E+03,
                      -4.14511818E+01])))

species(name=u'C5H8c(286)',
        atoms='H:8 C:5',
        thermo=(NASA([100.00, 1004.86],
                     [ 1.98273955E+00,  3.49998332E-02,  6.98515281E-06,
                      -3.05031334E-08,  1.32246652E-11,  6.96521034E+03,
                       1.60818191E+01]),
                NASA([1004.86, 5000.00],
                     [ 1.01246420E+01,  2.42323877E-02, -9.24886971E-06,
                       1.70115950E-09, -1.20059732E-13,  4.23624320E+03,
                      -2.86745770E+01])))

species(name=u'C8H12(596)',
        atoms='H:12 C:8',
        thermo=(NASA([100.00, 966.56],
                     [-1.28183216E-01,  7.35572918E-02, -1.44333618E-05,
                      -3.89698452E-08,  2.17299794E-11,  1.04422483E+04,
                       2.89601759E+01]),
                NASA([966.56, 5000.00],
                     [ 2.02785414E+01,  2.99584765E-02, -1.01704686E-05,
                       1.81720743E-09, -1.29537878E-13,  4.58909334E+03,
                      -7.86679341E+01])))

species(name=u'C2H6(894)',
        atoms='H:6 C:2',
        thermo=(NASA([100.00, 1012.42],
                     [ 3.72239291E+00,  1.65083841E-03,  3.44175530E-05,
                      -3.76858229E-08,  1.24450657E-11, -1.15575901E+04,
                       4.68247999E+00]),
                NASA([1012.42, 5000.00],
                     [ 2.82848257E+00,  1.73040568E-02, -6.73334245E-06,
                       1.23742024E-09, -8.65676410E-14, -1.19978080E+04,
                       5.93811707E+00])))

species(name=u'C8H14(907)',
        atoms='H:14 C:8',
        thermo=(NASA([100.00, 1506.76],
                     [ 5.49675181E-02,  8.43985440E-02, -5.64633487E-05,
                       1.98661295E-08, -2.94599969E-12, -7.77393079E+02,
                       2.95663347E+01]),
                NASA([1506.76, 5000.00],
                     [ 1.39949012E+01,  4.73919655E-02, -1.96226018E-05,
                       3.56583689E-09, -2.41458224E-13, -4.97819756E+03,
                      -4.34005510E+01])))

species(name=u'C8H14(910)',
        atoms='H:14 C:8',
        thermo=(NASA([100.00, 1014.29],
                     [-3.67121846E-01,  8.14233516E-02, -3.11110886E-05,
                      -1.65487757E-08,  1.19185866E-11, -3.02333684E+03,
                       3.00035003E+01]),
                NASA([1014.29, 5000.00],
                     [ 1.79686767E+01,  3.98264136E-02, -1.50150741E-05,
                       2.72531006E-09, -1.90287561E-13, -8.32275149E+03,
                      -6.65042554E+01])))

species(name=u'C8H14(911)',
        atoms='H:14 C:8',
        thermo=(NASA([100.00, 1016.25],
                     [-1.96777655E-01,  7.73097837E-02, -2.22069863E-05,
                      -2.37965356E-08,  1.39851151E-11, -2.84093532E+03,
                       3.12908370E+01]),
                NASA([1016.25, 5000.00],
                     [ 1.72431734E+01,  4.07120734E-02, -1.54898359E-05,
                       2.82734689E-09, -1.98026375E-13, -8.04042418E+03,
                      -6.12697843E+01])))

species(name=u'C8H14(913)',
        atoms='H:14 C:8',
        thermo=(NASA([100.00, 999.32],
                     [-8.27296041E-02,  7.33926821E-02, -9.70961131E-06,
                      -3.77339221E-08,  1.91784792E-11, -2.27794802E+03,
                       3.16114703E+01]),
                NASA([999.32, 5000.00],
                     [ 1.74908493E+01,  3.99675318E-02, -1.49508424E-05,
                       2.72972667E-09, -1.92366979E-13, -7.63361766E+03,
                      -6.23819175E+01])))

species(name=u'CH4(917)',
        atoms='H:4 C:1',
        thermo=(NASA([100.00, 1084.12],
                     [ 4.20541524E+00, -5.35557362E-03,  2.51123265E-05,
                      -2.13762843E-08,  5.97523937E-12, -1.01619433E+04,
                      -9.21279283E-01]),
                NASA([1084.12, 5000.00],
                     [ 9.08265721E-01,  1.14540858E-02, -4.57173828E-06,
                       8.29191671E-10, -5.66314895E-14, -9.71997444E+03,
                       1.39930944E+01])))

species(name=u'C7H12(942)',
        atoms='H:12 C:7',
        thermo=(NASA([100.00, 1016.70],
                     [ 3.01260003E-01,  6.93239326E-02, -2.79061455E-05,
                      -1.19417116E-08,  9.27990587E-12, -3.26068174E+02,
                       2.53851511E+01]),
                NASA([1016.70, 5000.00],
                     [ 1.55703568E+01,  3.41922940E-02, -1.28717489E-05,
                       2.32849221E-09, -1.62040961E-13, -4.71997327E+03,
                      -5.48718412E+01])))

species(name=u'C7H12(949)',
        atoms='H:12 C:7',
        thermo=(NASA([100.00, 1783.81],
                     [ 3.90326636E-01,  6.99570089E-02, -4.36036386E-05,
                       1.36989862E-08, -1.75194759E-12,  3.91426270E+03,
                       2.69445029E+01]),
                NASA([1783.81, 5000.00],
                     [ 1.66532980E+01,  3.34889164E-02, -1.29376150E-05,
                       2.23806923E-09, -1.45699842E-13, -1.88772406E+03,
                      -6.09270868E+01])))

species(name=u'C5H10(978)',
        atoms='H:10 C:5',
        thermo=(NASA([100.00, 1065.88],
                     [ 1.83973645E+00,  3.88165649E-02,  3.95415802E-06,
                      -2.48620336E-08,  1.01608534E-11, -6.45875726E+03,
                       1.88194915E+01]),
                NASA([1065.88, 5000.00],
                     [ 8.87931728E+00,  3.15047857E-02, -1.26438740E-05,
                       2.33666558E-09, -1.63001335E-13, -9.04475166E+03,
                      -2.06827600E+01])))

species(name=u'C4H8(1043)',
        atoms='H:8 C:4',
        thermo=(NASA([100.00, 1061.33],
                     [ 2.52504770E+00,  2.64752782E-02,  7.08359238E-06,
                      -2.07731462E-08,  8.00430055E-12, -4.02607130E+03,
                       1.28857274E+01]),
                NASA([1061.33, 5000.00],
                     [ 6.48672669E+00,  2.49943921E-02, -9.83283171E-06,
                       1.79343299E-09, -1.24008235E-13, -5.62452310E+03,
                      -1.00316397E+01])))

species(name=u'S(1069)',
        atoms='H:12 C:6',
        thermo=(NASA([100.00, 3144.72],
                     [ 1.62486600E+00,  5.81706891E-02, -2.94074668E-05,
                       6.41453677E-09, -5.27511383E-13, -9.95070725E+03,
                       2.05730324E+01]),
                NASA([3144.72, 5000.00],
                     [ 2.63049846E+01,  2.09689465E-02, -8.89163385E-06,
                       1.47783715E-09, -8.83519412E-14, -2.26006402E+04,
                      -1.22203751E+02])))

species(name=u'S(1269)',
        atoms='H:10 C:5',
        thermo=(NASA([100.00, 1054.71],
                     [ 2.07229480E+00,  3.36844001E-02,  1.40189744E-05,
                      -3.27909735E-08,  1.24687335E-11, -7.08395627E+03,
                       1.85216921E+01]),
                NASA([1054.71, 5000.00],
                     [ 7.69906317E+00,  3.25047725E-02, -1.29748243E-05,
                       2.39429532E-09, -1.67023134E-13, -9.39218314E+03,
                      -1.42396425E+01])))

species(name=u'S(2347)',
        atoms='H:18 C:10',
        thermo=(NASA([100.00, 1489.87],
                     [-1.51871593E+00,  1.14160504E-01, -8.01958783E-05,
                       2.96101810E-08, -4.54387250E-12, -8.00101169E+03,
                       3.88660225E+01]),
                NASA([1489.87, 5000.00],
                     [ 1.94626982E+01,  5.78299627E-02, -2.34826510E-05,
                       4.23306406E-09, -2.85619449E-13, -1.42529628E+04,
                      -7.07223469E+01])))

species(name=u'S(2402)',
        atoms='H:18 C:10',
        thermo=(NASA([100.00, 1158.48],
                     [-1.73167591E+00,  1.09077891E-01, -5.83333229E-05,
                       5.40067358E-09,  3.60301005E-12, -6.92483725E+03,
                       4.08092886E+01]),
                NASA([1158.48, 5000.00],
                     [ 2.11409181E+01,  5.59043600E-02, -2.28913870E-05,
                       4.22976090E-09, -2.93014074E-13, -1.39556654E+04,
                      -8.03749852E+01])))

species(name=u'S(2488)',
        atoms='H:14 C:8',
        thermo=(NASA([100.00, 1061.60],
                     [-2.92612015E-01,  8.13598166E-02, -3.75111047E-05,
                      -5.26746011E-09,  6.79996745E-12, -3.15203310E+03,
                       3.11249298E+01]),
                NASA([1061.60, 5000.00],
                     [ 1.65258017E+01,  4.22160438E-02, -1.64331635E-05,
                       2.99218456E-09, -2.07335165E-13, -8.08806756E+03,
                      -5.74492182E+01])))

species(name=u'S(2724)',
        atoms='H:16 C:9',
        thermo=(NASA([100.00, 1563.75],
                     [-8.12375823E-01,  9.86888614E-02, -6.66358248E-05,
                       2.33682943E-08, -3.39676096E-12, -3.46572508E+03,
                       3.56023758E+01]),
                NASA([1563.75, 5000.00],
                     [ 1.80334241E+01,  5.04824494E-02, -2.03949216E-05,
                       3.65472377E-09, -2.45128673E-13, -9.35978208E+03,
                      -6.37435288E+01])))

species(name=u'S(3643)',
        atoms='H:18 C:10',
        thermo=(NASA([100.00, 1380.53],
                     [-1.24630044E+00,  1.14045057E-01, -8.17752249E-05,
                       3.15462852E-08, -5.16232066E-12, -8.15220733E+03,
                       3.79046400E+01]),
                NASA([1380.53, 5000.00],
                     [ 1.62908629E+01,  6.32321518E-02, -2.65649428E-05,
                       4.88485819E-09, -3.34200347E-13, -1.29943174E+04,
                      -5.23571791E+01])))

species(name=u'S(3693)',
        atoms='H:18 C:10',
        thermo=(NASA([100.00, 1717.23],
                     [-1.98574086E+00,  1.14573109E-01, -7.68576584E-05,
                       2.57563585E-08, -3.48008894E-12, -7.05206785E+03,
                       4.03916955E+01]),
                NASA([1717.23, 5000.00],
                     [ 2.63343643E+01,  4.86058840E-02, -1.92350594E-05,
                       3.38589678E-09, -2.23309689E-13, -1.67784537E+04,
                      -1.11549358E+02])))

species(name=u'S(4451)',
        atoms='H:18 C:10',
        thermo=(NASA([100.00, 1188.78],
                     [-1.95300717E+00,  1.15046892E-01, -7.59923563E-05,
                       2.20571103E-08, -1.46154816E-12, -1.03349424E+04,
                       4.06077933E+01]),
                NASA([1188.78, 5000.00],
                     [ 2.15567328E+01,  5.36921349E-02, -2.09728234E-05,
                       3.76285270E-09, -2.55770737E-13, -1.71787854E+04,
                      -8.21540077E+01])))

species(name=u'S(6196)',
        atoms='H:18 C:10',
        thermo=(NASA([100.00, 1257.99],
                     [-1.77638203E+00,  1.11175586E-01, -6.99781467E-05,
                       1.95064001E-08, -1.38281661E-12, -7.55139350E+03,
                       4.22201441E+01]),
                NASA([1257.99, 5000.00],
                     [ 2.09122143E+01,  5.48385668E-02, -2.16492015E-05,
                       3.88215456E-09, -2.62638148E-13, -1.45104195E+04,
                      -7.74173228E+01])))

species(name=u'S(6232)',
        atoms='H:18 C:10',
        thermo=(NASA([100.00, 1257.99],
                     [-1.77638203E+00,  1.11175586E-01, -6.99781467E-05,
                       1.95064001E-08, -1.38281661E-12, -7.55139350E+03,
                       4.22201441E+01]),
                NASA([1257.99, 5000.00],
                     [ 2.09122143E+01,  5.48385668E-02, -2.16492015E-05,
                       3.88215456E-09, -2.62638148E-13, -1.45104195E+04,
                      -7.74173228E+01])))

species(name=u'S(6423)',
        atoms='H:18 C:10',
        thermo=(NASA([100.00, 1597.87],
                     [-1.64256236E+00,  1.12589417E-01, -7.63198624E-05,
                       2.66858420E-08, -3.83277046E-12, -7.69665741E+03,
                       4.10682998E+01]),
                NASA([1597.87, 5000.00],
                     [ 2.16896096E+01,  5.41816917E-02, -2.14900589E-05,
                       3.80981686E-09, -2.53654993E-13, -1.51530717E+04,
                      -8.24312505E+01])))

species(name=u'S(6515)',
        atoms='H:18 C:10',
        thermo=(NASA([100.00, 1466.89],
                     [-1.52669457E+00,  1.14567371E-01, -8.12220709E-05,
                       3.04502695E-08, -4.75268915E-12, -8.59293962E+03,
                       3.79804996E+01]),
                NASA([1466.89, 5000.00],
                     [ 1.91519147E+01,  5.81796248E-02, -2.35614374E-05,
                       4.24482291E-09, -2.86521819E-13, -1.46595752E+04,
                      -6.97046867E+01])))

species(name=u'S(7163)',
        atoms='H:14 C:8',
        thermo=(NASA([100.00, 1012.24],
                     [-2.09223904E-01,  7.77576239E-02, -2.33131684E-05,
                      -2.29517400E-08,  1.38173607E-11, -3.93589315E+03,
                       2.97288385E+01]),
                NASA([1012.24, 5000.00],
                     [ 1.72293105E+01,  4.06072674E-02, -1.53260637E-05,
                       2.78503282E-09, -1.94638165E-13, -9.09341114E+03,
                      -6.26514103E+01])))

species(name=u'S(8196)',
        atoms='H:12 C:6',
        thermo=(NASA([100.00, 1083.88],
                     [ 1.36789859E+00,  4.60332170E-02,  1.03872042E-05,
                      -3.61548644E-08,  1.41144370E-11, -9.87388749E+03,
                       2.31436772E+01]),
                NASA([1083.88, 5000.00],
                     [ 1.07762218E+01,  3.82405519E-02, -1.60946813E-05,
                       3.05489613E-09, -2.16276948E-13, -1.34951521E+04,
                      -3.03006182E+01])))

species(name=u'X(1)',
        atoms='X:1',
        thermo=(NASA([100.00, 1554.80],
                     [ 7.10139498E-03, -4.25619522E-05,  8.98533016E-08,
                      -7.80193649E-11,  2.32465471E-14, -8.76101712E-01,
                      -3.11211229E-02]),
                NASA([1554.80, 5000.00],
                     [ 1.60299900E-01, -2.52235409E-04,  1.14181275E-07,
                      -1.21471653E-11,  3.85790025E-16, -7.08100885E+01,
                      -9.09527530E-01])))

species(name=u'HX(5)',
        atoms='H:1 X:1',
        thermo=(NASA([100.00, 952.91],
                     [-3.80965452E-01,  5.47228709E-03,  2.60912778E-06,
                      -9.64961980E-09,  4.63946753E-12, -2.16972714E+03,
                       1.01725550E+00]),
                NASA([952.91, 5000.00],
                     [ 2.80339655E+00, -5.41047017E-04,  4.99507978E-07,
                      -7.54963647E-11,  3.06772366E-15, -3.11047656E+03,
                      -1.59436787E+01])))

species(name=u'C2H3X(37)',
        atoms='H:3 C:2 X:1',
        thermo=(NASA([100.00, 928.62],
                     [ 3.83091018E+00, -8.76381562E-03,  6.97956896E-05,
                      -8.67969174E-08,  3.33218121E-11,  2.32557546E+03,
                      -1.81151753E+01]),
                NASA([928.62, 5000.00],
                     [ 8.78054562E+00,  1.92497720E-03,  8.25825014E-07,
                      -1.63749818E-10,  5.71728318E-15,  2.61723399E+01,
                      -4.90588618E+01])))

species(name=u'allylX(38)',
        atoms='H:5 C:3 X:1',
        thermo=(NASA([100.00, 937.34],
                     [ 3.44148119E+00, -3.47700003E-03,  8.25933681E-05,
                      -1.05556823E-07,  4.04445066E-11, -1.21626267E+03,
                      -6.88846669E+00]),
                NASA([937.34, 5000.00],
                     [ 9.98148902E+00,  8.92268754E-03, -1.75442587E-06,
                       3.12285771E-10, -2.84156572E-14, -4.21306031E+03,
                      -4.74626902E+01])))

species(name=u'CH3X(39)',
        atoms='H:3 C:1 X:1',
        thermo=(NASA([100.00, 848.30],
                     [-1.21090496E+00,  2.92390681E-02, -4.49011079E-05,
                       3.86009808E-08, -1.30361041E-11, -5.39494117E+03,
                       6.80939750E+00]),
                NASA([848.30, 5000.00],
                     [ 1.62290877E+00,  1.12987268E-02, -5.08316908E-06,
                       9.46833581E-10, -6.42885536E-14, -5.71100608E+03,
                      -5.42501059E+00])))

species(name=u'C2H5X(40)',
        atoms='H:5 C:2 X:1',
        thermo=(NASA([100.00, 803.81],
                     [-1.64625424E+00,  3.89626488E-02, -4.31128887E-05,
                       2.97076939E-08, -8.80222915E-12, -9.37861619E+03,
                       9.27323637E+00]),
                NASA([803.81, 5000.00],