units(length='cm', time='s', quantity='mol', act_energy='kcal/mol')

ideal_gas(name='gas',
          elements="H D T C Ci O Oi N Ne Ar He Si S Cl X",
          species="""n-heptane   Ar          He          Ne
                     N2          C2H4(2)     C4H8-1(3)   C4H8-2(4)
                     C4H6(7)     H2(68)      C6H8(111)   C8H10(114)
                     S(192)      S(203)      S(263)      S(308)
                     S(364)      C8H10(398)  C8H11(404)  S(504)
                     S(555)      S(639)      S(751)      C7H9(759)
                     S(773)      S(813)      S(1064)     S(1157)
                     S(1235)     S(1272)     S(1464)     S(1476)
                     S(1929)     S(2003)     S(2285)     S(2289)
                     S(2360)     S(2361)     S(2814)     S(2930)
                     S(3081)     S(3084)     S(3240)     S(3349)
                     S(3418)     S(3718)     S(3890)""",
          reactions='gas-*',
          initial_state=state(temperature=300.0, pressure=OneAtm))

ideal_interface(name='surface1',
                elements="H D T C Ci O Oi N Ne Ar He Si S Cl X",
                species="""X(1)        HX(5)       C2H3X(37)   C4H5X(80)
                          C4H5X(81)   C6H7X(132)  SX(324)     SX(325)
                          SX(327)     SX(328)     SX(329)     SX(330)
                          SX(331)     C8H9X(399)  SX(437)     SX(472)
                          SX(473)     SX(526)     SX(530)     SX(545)
                          SX(546)     SX(548)     SX(604)     SX(606)
                          SX(607)     SX(608)     SX(609)     SX(610)
                          SX(641)     SX(742)     SX(743)     C7H9X(745)
                          SX(805)     SX(903)     C5H7X(989)  SX(990)
                          SX(992)     SX(996)     SX(997)     SX(998)
                          SX(999)     SX(1289)    SX(1292)    SX(1293)
                          SX(1417)    SX(1419)    SX(1460)    SX(1568)
                          SX(1569)    SX(1571)    SX(1695)    SX(1763)
                          SX(1796)    SX(1924)    SX(1925)    SX(2230)
                          SX(2381)    SX(2676)    SX(3125)    SX(3126)
                          SX(3127)    SX(3230)    SX(3234)    SX(3411)
                          SX(3766)    SX(3883)""",
                site_density=2.72e-09,
                phases="gas",
          reactions='surface1-*',
                initial_state=state(temperature=300.0, pressure=OneAtm))

#-------------------------------------------------------------------------------
# Element data
#-------------------------------------------------------------------------------

element(symbol=u'X', atomic_mass=195.083)
element(symbol=u'Ci', atomic_mass=13.003)
element(symbol=u'D', atomic_mass=2.014)
element(symbol=u'Oi', atomic_mass=18.0)
element(symbol=u'T', atomic_mass=3.016)
#-------------------------------------------------------------------------------
# Species data
#-------------------------------------------------------------------------------

species(name=u'n-heptane',
        atoms='H:16 C:7',
        thermo=(NASA([100.00, 1262.73],
                     [-2.91681405E-03,  7.69373649E-02, -3.48025563E-05,
                       1.86095180E-09,  2.01573617E-12, -2.57829342E+04,
                       3.00312148E+01]),
                NASA([1262.73, 5000.00],
                     [ 1.38377915E+01,  4.85945016E-02, -1.95474548E-05,
                       3.52837178E-09, -2.39064676E-13, -3.05141556E+04,
                      -4.48642836E+01])))

species(name=u'Ar',
        atoms='Ar:1',
        thermo=(NASA([200.00, 1000.00],
                     [ 2.50000000E+00,  0.00000000E+00,  0.00000000E+00,
                       0.00000000E+00,  0.00000000E+00, -7.45375000E+02,
                       4.37967000E+00]),
                NASA([1000.00, 6000.00],
                     [ 2.50000000E+00,  0.00000000E+00,  0.00000000E+00,
                       0.00000000E+00,  0.00000000E+00, -7.45375000E+02,
                       4.37967000E+00])))

species(name=u'He',
        atoms='He:1',
        thermo=(NASA([200.00, 1000.00],
                     [ 2.50000000E+00,  0.00000000E+00,  0.00000000E+00,
                       0.00000000E+00,  0.00000000E+00, -7.45375000E+02,
                       9.28724000E-01]),
                NASA([1000.00, 6000.00],
                     [ 2.50000000E+00,  0.00000000E+00,  0.00000000E+00,
                       0.00000000E+00,  0.00000000E+00, -7.45375000E+02,
                       9.28724000E-01])))

species(name=u'Ne',
        atoms='Ne:1',
        thermo=(NASA([200.00, 1000.00],
                     [ 2.50000000E+00,  0.00000000E+00,  0.00000000E+00,
                       0.00000000E+00,  0.00000000E+00, -7.45375000E+02,
                       3.35532000E+00]),
                NASA([1000.00, 6000.00],
                     [ 2.50000000E+00,  0.00000000E+00,  0.00000000E+00,
                       0.00000000E+00,  0.00000000E+00, -7.45375000E+02,
                       3.35532000E+00])))

species(name=u'N2',
        atoms='N:2',
        thermo=(NASA([200.00, 1000.00],
                     [ 3.53101000E+00, -1.23661000E-04, -5.02999000E-07,
                       2.43531000E-09, -1.40881000E-12, -1.04698000E+03,
                       2.96747000E+00]),
                NASA([1000.00, 6000.00],
                     [ 2.95258000E+00,  1.39690000E-03, -4.92632000E-07,
                       7.86010000E-11, -4.60755000E-15, -9.23949000E+02,
                       5.87189000E+00])))

species(name=u'C2H4(2)',
        atoms='H:4 C:2',
        thermo=(NASA([100.00, 979.36],
                     [ 3.97471606E+00, -4.75844285E-03,  4.16783770E-05,
                      -4.51392516E-08,  1.54224761E-11,  4.91540746E+03,
                       3.62430844E+00]),
                NASA([979.36, 5000.00],
                     [ 3.55660610E+00,  1.10627464E-02, -4.17019079E-06,
                       7.85586770E-10, -5.70060829E-14,  4.32046489E+03,
                       2.17719479E+00])))

species(name=u'C4H8-1(3)',
        atoms='H:8 C:4',
        thermo=(NASA([100.00, 1007.28],
                     [ 2.58772906E+00,  2.32777969E-02,  1.93412349E-05,
                      -3.55496333E-08,  1.36906009E-11, -1.91872926E+03,
                       1.45750618E+01]),
                NASA([1007.28, 5000.00],
                     [ 7.20517168E+00,  2.36361568E-02, -9.03150028E-06,
                       1.65392666E-09, -1.16019260E-13, -3.79733937E+03,
                      -1.24426257E+01])))

species(name=u'C4H8-2(4)',
        atoms='H:8 C:4',
        thermo=(NASA([100.00, 1157.79],
                     [ 2.51998327E+00,  2.76812799E-02,  9.43783469E-07,
                      -1.25009101E-08,  4.67144666E-12, -3.34374767E+03,
                       1.30195623E+01]),
                NASA([1157.79, 5000.00],
                     [ 6.04225708E+00,  2.60072350E-02, -1.04843374E-05,
                       1.90880922E-09, -1.30600505E-13, -4.86276511E+03,
                      -7.52715109E+00])))

species(name=u'C4H6(7)',
        atoms='H:6 C:4',
        thermo=(NASA([100.00, 946.05],
                     [ 2.80599310E+00,  1.02584471E-02,  6.17260255E-05,
                      -9.01642687E-08,  3.59116961E-11,  1.16584972E+04,
                       1.20621434E+01]),
                NASA([946.05, 5000.00],
                     [ 1.24693720E+01,  1.00553901E-02, -2.41206872E-06,
                       4.57077303E-10, -3.93160571E-14,  8.01077795E+03,
                      -4.36374720E+01])))

species(name=u'H2(68)',
        atoms='H:2',
        thermo=(NASA([100.00, 1959.08],
                     [ 3.43536412E+00,  2.12710353E-04, -2.78625043E-07,
                       3.40267167E-10, -7.76031998E-14, -1.03135984E+03,
                      -3.90841732E+00]),
                NASA([1959.08, 5000.00],
                     [ 2.78816583E+00,  5.87640942E-04,  1.59010417E-07,
                      -5.52739026E-11,  4.34310984E-15, -5.96144270E+02,
                       1.12732655E-01])))

species(name=u'C6H8(111)',
        atoms='H:8 C:6',
        thermo=(NASA([100.00, 972.94],
                     [ 1.82686070E+00,  3.47046353E-02,  2.41070171E-05,
                      -5.44847920E-08,  2.29388832E-11,  1.99100661E+04,
                       1.81393315E+01]),
                NASA([972.94, 5000.00],
                     [ 1.21686202E+01,  2.40472785E-02, -8.58151834E-06,
                       1.57034031E-09, -1.12795334E-13,  1.63897115E+04,
                      -3.92195169E+01])))

species(name=u'C8H10(114)',
        atoms='H:10 C:8',
        thermo=(NASA([100.00, 1006.91],
                     [ 9.59099136E-01,  5.26052795E-02,  1.05118295E-05,
                      -4.60808495E-08,  1.99632153E-11,  2.84660811E+04,
                       2.42924801E+01]),
                NASA([1006.91, 5000.00],
                     [ 1.34171277E+01,  3.60526403E-02, -1.38971709E-05,
                       2.56761905E-09, -1.81631637E-13,  2.42875578E+04,
                      -4.41873377E+01])))

species(name=u'S(192)',
        atoms='H:16 C:12',
        thermo=(NASA([100.00, 980.77],
                     [-2.21845665E+00,  1.15202302E-01, -4.46058253E-05,
                      -2.89292454E-08,  2.08193354E-11,  3.97133228E+04,
                       4.48687920E+01]),
                NASA([980.77, 5000.00],
                     [ 2.59409200E+01,  4.89148103E-02, -1.74910345E-05,
                       3.12129948E-09, -2.18247198E-13,  3.18543069E+04,
                      -1.02343316E+02])))

species(name=u'S(203)',
        atoms='H:16 C:12',
        thermo=(NASA([100.00, 989.29],
                     [-1.49871027E+00,  8.97231513E-02,  3.13728211E-05,
                      -1.05849951E-07,  4.65472901E-11,  2.08342656E+04,
                       3.86324941E+01]),
                NASA([989.29, 5000.00],
                     [ 2.71231573E+01,  4.82447418E-02, -1.83146882E-05,
                       3.49879125E-09, -2.57494969E-13,  1.15378770E+04,
                      -1.17506583E+02])))

species(name=u'S(263)',
        atoms='H:15 C:12',
        thermo=(NASA([100.00, 994.96],
                     [-9.10525753E-01,  7.23065908E-02,  7.86529115E-05,
                      -1.50118451E-07,  6.04728055E-11,  3.34535297E+04,
                       3.72742060E+01]),
                NASA([994.96, 5000.00],
                     [ 2.59409054E+01,  5.12026508E-02, -2.04595453E-05,
                       4.01923029E-09, -2.99921063E-13,  2.38116792E+04,
                      -1.13734786E+02])))

species(name=u'S(308)',
        atoms='H:16 C:12',
        thermo=(NASA([100.00, 1011.71],
                     [-1.20303342E+00,  8.13255676E-02,  5.51392531E-05,
                      -1.24057147E-07,  5.05122313E-11,  1.92626563E+04,
                       3.67681708E+01]),
                NASA([1011.71, 5000.00],
                     [ 2.55049272E+01,  5.47778999E-02, -2.26996210E-05,
                       4.46368808E-09, -3.29899575E-13,  9.81303791E+03,
                      -1.12386527E+02])))

species(name=u'S(364)',
        atoms='H:12 C:10',
        thermo=(NASA([100.00, 1043.18],
                     [ 8.00010427E-02,  7.06155121E-02, -3.33970318E-06,
                      -3.75536308E-08,  1.70371997E-11,  3.70226034E+04,
                       3.04877535E+01]),
                NASA([1043.18, 5000.00],
                     [ 1.48527536E+01,  4.77532684E-02, -1.90425431E-05,
                       3.52560547E-09, -2.47266459E-13,  3.21023102E+04,
                      -5.02171312E+01])))

species(name=u'C8H10(398)',
        atoms='H:10 C:8',
        thermo=(NASA([100.00, 977.35],
                     [ 1.20173571E+00,  3.27272819E-02,  9.65447107E-05,
                      -1.46973565E-07,  5.73039020E-11,  3.66668175E+04,
                       1.86379877E+01]),
                NASA([977.35, 5000.00],
                     [ 1.91455040E+01,  3.13149575E-02, -1.18305343E-05,
                       2.35397473E-09, -1.80727667E-13,  2.97193290E+04,
                      -8.51179199E+01])))

species(name=u'C8H11(404)',
        atoms='H:11 C:8',
        thermo=(NASA([100.00, 956.07],
                     [-1.09891059E-02,  7.24055483E-02, -1.79539071E-05,
                      -3.40698735E-08,  2.01060051E-11,  2.28381705E+04,
                       2.77858466E+01]),
                NASA([956.07, 5000.00],
                     [ 1.94580865E+01,  2.89872242E-02, -9.50968002E-06,
                       1.65368217E-09, -1.16131753E-13,  1.73770137E+04,
                      -7.43579100E+01])))

species(name=u'S(504)',
        atoms='H:15 C:12',
        thermo=(NASA([100.00, 970.90],
                     [-1.71520867E+00,  9.95432566E-02, -4.74357209E-06,
                      -7.04390643E-08,  3.56211412E-11,  3.34415592E+04,
                       3.83477263E+01]),
                NASA([970.90, 5000.00],
                     [ 2.67411184E+01,  4.44003661E-02, -1.54835680E-05,
                       2.80861775E-09, -2.01631064E-13,  2.49892981E+04,
                      -1.13168941E+02])))

species(name=u'S(555)',
        atoms='H:13 C:10',
        thermo=(NASA([100.00, 976.25],
                     [ 2.44850415E-02,  5.63859714E-02,  7.92794649E-05,
                      -1.41928102E-07,  5.74393116E-11,  2.04708984E+04,
                       2.81369127E+01]),
                NASA([976.25, 5000.00],
                     [ 2.23687210E+01,  4.13694852E-02, -1.52419740E-05,
                       2.92184710E-09, -2.18042141E-13,  1.24610288E+04,
                      -9.78033799E+01])))

species(name=u'S(639)',
        atoms='H:16 C:12',
        thermo=(NASA([100.00, 990.94],
                     [-1.53673879E+00,  9.50296733E-02,  8.13325447E-06,
                      -7.82185025E-08,  3.63989841E-11,  2.10168816E+04,
                       3.81765950E+01]),
                NASA([990.94, 5000.00],
                     [ 2.49483558E+01,  5.05143791E-02, -1.89287732E-05,
                       3.52660923E-09, -2.53947844E-13,  1.27044184E+04,
                      -1.04814787E+02])))

species(name=u'S(751)',
        atoms='H:15 C:12',
        thermo=(NASA([100.00, 989.74],
                     [-1.06920106E+00,  8.65061190E-02,  1.75663536E-05,
                      -8.13090760E-08,  3.63222951E-11,  3.19614090E+04,
                       3.90682869E+01]),
                NASA([989.74, 5000.00],
                     [ 2.18995972E+01,  5.23509098E-02, -1.95909391E-05,
                       3.61476272E-09, -2.57905034E-13,  2.45410598E+04,
                      -8.60235913E+01])))

species(name=u'C7H9(759)',
        atoms='H:9 C:7',
        thermo=(NASA([100.00, 960.10],
                     [ 1.94183052E+00,  2.40649774E-02,  7.97952916E-05,
                      -1.18026725E-07,  4.61192248E-11,  2.16204187E+04,
                       2.19868571E+01]),
                NASA([960.10, 5000.00],
                     [ 1.38393996E+01,  2.78185296E-02, -9.37614248E-06,
                       1.73813373E-09, -1.29114199E-13,  1.68783004E+04,
                      -4.77260465E+01])))

species(name=u'S(773)',
        atoms='H:15 C:12',
        thermo=(NASA([100.00, 984.37],
                     [-5.37896420E-01,  6.91571916E-02,  6.78331849E-05,
                      -1.32481351E-07,  5.38778566E-11,  3.40474077E+04,
                       3.25829999E+01]),
                NASA([984.37, 5000.00],
                     [ 2.21119676E+01,  5.17760824E-02, -1.94438000E-05,
                       3.67256768E-09, -2.68128755E-13,  2.59711429E+04,
                      -9.47052603E+01])))

species(name=u'S(813)',
        atoms='H:16 C:12',
        thermo=(NASA([100.00, 992.60],
                     [-2.02051020E+00,  1.08734835E-01, -2.89711942E-05,
                      -4.32763322E-08,  2.51062468E-11,  1.92512215E+04,
                       3.85793690E+01]),
                NASA([992.60, 5000.00],
                     [ 2.62576693E+01,  4.80482550E-02, -1.77622499E-05,
                       3.26163402E-09, -2.32284753E-13,  1.10132322E+04,
                      -1.10855289E+02])))

species(name=u'S(1064)',
        atoms='H:12 C:10',
        thermo=(NASA([100.00, 968.65],
                     [ 6.55596893E-03,  5.50367595E-02,  8.40309751E-05,
                      -1.50786277E-07,  6.17167027E-11,  3.87297379E+04,
                       2.63275406E+01]),
                NASA([968.65, 5000.00],
                     [ 2.42145071E+01,  3.63241455E-02, -1.28171324E-05,
                       2.46810154E-09, -1.87634557E-13,  3.02280478E+04,
                      -1.09367124E+02])))

species(name=u'S(1157)',
        atoms='H:12 C:10',
        thermo=(NASA([100.00, 934.90],
                     [ 1.14949863E+00,  2.56056208E-02,  1.48145681E-04,
                      -2.17005632E-07,  8.71671305E-11,  1.98025721E+04,
                       2.52596418E+01]),
                NASA([934.90, 5000.00],
                     [ 2.30268642E+01,  2.66924504E-02, -5.52368921E-06,
                       9.11070585E-10, -7.58555397E-14,  1.15738298E+04,
                      -1.00944658E+02])))

species(name=u'S(1235)',
        atoms='H:11 C:10',
        thermo=(NASA([100.00, 927.11],
                     [ 5.80169242E-01,  4.54991468E-02,  8.45438319E-05,
                      -1.52228728E-07,  6.51050039E-11,  3.12309550E+04,
                       2.57307422E+01]),
                NASA([927.11, 5000.00],
                     [ 2.31406667E+01,  2.44209791E-02, -4.73406672E-06,
                       6.89776122E-10, -5.41266922E-14,  2.37703881E+04,
                      -9.90782512E+01])))

species(name=u'S(1272)',
        atoms='H:12 C:10',
        thermo=(NASA([100.00, 936.06],
                     [ 2.95830266E-01,  5.44689708E-02,  6.09446235E-05,
                      -1.25610619E-07,  5.46763618E-11,  1.70397067E+04,
                       2.51926264E+01]),
                NASA([936.06, 5000.00],
                     [ 2.24308561E+01,  2.84460946E-02, -7.22714492E-06,
                       1.19289639E-09, -8.89025831E-14,  9.89187725E+03,
                      -9.61788204E+01])))

species(name=u'S(1464)',
        atoms='H:14 C:12',
        thermo=(NASA([100.00, 943.15],
                     [-7.78519436E-01,  7.42689681E-02,  5.10022322E-05,
                      -1.28380547E-07,  5.74363172E-11,  2.70193968E+04,
                       3.47064404E+01]),
                NASA([943.15, 5000.00],
                     [ 2.67426017E+01,  3.50206256E-02, -9.78845622E-06,
                       1.68166086E-09, -1.24583109E-13,  1.83824036E+04,
                      -1.14723123E+02])))

species(name=u'S(1476)',
        atoms='H:13 C:12',
        thermo=(NASA([100.00, 930.38],
                     [-4.50091278E-01,  6.17634694E-02,  8.90441762E-05,
                      -1.73635021E-07,  7.54900611E-11,  3.92473779E+04,
                       3.31984229E+01]),
                NASA([930.38, 5000.00],
                     [ 2.88829512E+01,  2.80271674E-02, -5.49836735E-06,
                       8.29609393E-10, -6.65598569E-14,  2.97911825E+04,
                      -1.27685865E+02])))

species(name=u'S(1929)',
        atoms='H:16 C:12',
        thermo=(NASA([100.00, 969.04],
                     [-1.95478964E+00,  1.02453263E-01, -8.56095212E-07,
                      -7.95139997E-08,  3.97379461E-11,  1.69217225E+04,
                       4.01869367E+01]),
                NASA([969.04, 5000.00],
                     [ 2.88554636E+01,  4.34086299E-02, -1.49263754E-05,
                       2.72412982E-09, -1.97713674E-13,  7.75146213E+03,
                      -1.23991791E+02])))

species(name=u'S(2003)',
        atoms='H:16 C:12',
        thermo=(NASA([100.00, 998.05],
                     [-1.52430887E+00,  9.66762025E-02, -1.33829094E-06,
                      -6.57485316E-08,  3.14332499E-11,  1.79065710E+04,
                       3.87629342E+01]),
                NASA([998.05, 5000.00],
                     [ 2.38129637E+01,  5.20255394E-02, -1.97432462E-05,
                       3.66493029E-09, -2.61866606E-13,  1.00152729E+04,
                      -9.76216451E+01])))

species(name=u'S(2285)',
        atoms='H:16 C:12',
        thermo=(NASA([100.00, 1004.93],
                     [-1.86953211E+00,  1.06206677E-01, -2.64820787E-05,
                      -4.17090881E-08,  2.34551360E-11,  1.81015856E+04,
                       3.84629587E+01]),
                NASA([1004.93, 5000.00],
                     [ 2.47180269E+01,  5.08962835E-02, -1.93288938E-05,
                       3.56914595E-09, -2.53442808E-13,  1.02069855E+04,
                      -1.02629192E+02])))

species(name=u'S(2289)',
        atoms='H:15 C:12',
        thermo=(NASA([100.00, 1028.72],
                     [-1.38382926E+00,  9.83694651E-02, -2.29246245E-05,
                      -3.53241515E-08,  1.90513078E-11,  2.68413084E+04,
                       3.97493594E+01]),
                NASA([1028.72, 5000.00],
                     [ 2.08028799E+01,  5.47097642E-02, -2.13935573E-05,
                       3.94752855E-09, -2.77507283E-13,  2.00219302E+04,
                      -7.88751933E+01])))

species(name=u'S(2360)',
        atoms='H:16 C:12',
        thermo=(NASA([100.00, 1108.78],
                     [-1.83403471E+00,  1.10604735E-01, -5.48291523E-05,
                      -1.04446456E-09,  6.40255852E-12,  2.08564239E+04,
                       3.83969645E+01]),
                NASA([1108.78, 5000.00],
                     [ 2.13248215E+01,  5.70740339E-02, -2.30179773E-05,
                       4.24412032E-09, -2.94864290E-13,  1.38756972E+04,
                      -8.40429558E+01])))

species(name=u'S(2361)',
        atoms='H:16 C:12',
        thermo=(NASA([100.00, 994.24],
                     [-8.77714614E-01,  7.95766680E-02,  4.12622924E-05,
                      -1.04567943E-07,  4.37919587E-11,  2.13635169E+04,
                       3.87779820E+01]),
                NASA([994.24, 5000.00],
                     [ 2.16952477E+01,  5.47829300E-02, -2.09375569E-05,
                       3.92775475E-09, -2.83126795E-13,  1.36117993E+04,
                      -8.64033165E+01])))

species(name=u'S(2814)',
        atoms='H:14 C:10',
        thermo=(NASA([100.00, 1012.53],
                     [-1.20605840E+00,  9.40401291E-02, -2.93709084E-05,
                      -3.14398490E-08,  1.89945163E-11,  2.17676358E+04,
                       3.69663981E+01]),
                NASA([1012.53, 5000.00],
                     [ 2.36543438E+01,  4.03205348E-02, -1.56993177E-05,
                       2.95478832E-09, -2.12434612E-13,  1.44525644E+04,
                      -9.45425192E+01])))

species(name=u'S(2930)',
        atoms='H:14 C:12',
        thermo=(NASA([100.00, 1035.04],
                     [-1.26168706E+00,  9.45746777E-02, -1.95945365E-05,
                      -3.87782430E-08,  2.02315086E-11,  1.68119335E+04,
                       3.88808447E+01]),
                NASA([1035.04, 5000.00],
                     [ 2.21511587E+01,  4.94448892E-02, -1.99159384E-05,
                       3.76206338E-09, -2.68663474E-13,  9.53605811E+03,
                      -8.66139491E+01])))

species(name=u'S(3081)',
        atoms='H:10 C:7',
        thermo=(NASA([100.00, 1013.93],
                     [ 1.13620462E+00,  5.07839825E-02,  1.86857674E-06,
                      -3.40292091E-08,  1.53985393E-11,  1.56009780E+04,
                       2.31184760E+01]),
                NASA([1013.93, 5000.00],
                     [ 1.25606010E+01,  3.32052103E-02, -1.27956037E-05,
                       2.35356470E-09, -1.65606655E-13,  1.18711633E+04,
                      -3.91241510E+01])))

species(name=u'S(3084)',
        atoms='H:12 C:9',
        thermo=(NASA([100.00, 1059.44],
                     [ 2.51173849E-01,  6.88557305E-02, -1.21546521E-05,
                      -2.53486165E-08,  1.24397390E-11,  2.41577643E+04,
                       2.93355522E+01]),
                NASA([1059.44, 5000.00],
                     [ 1.40740213E+01,  4.47797725E-02, -1.78707872E-05,
                       3.29539863E-09, -2.29928097E-13,  1.96511276E+04,
                      -4.55959333E+01])))

species(name=u'S(3240)',
        atoms='H:10 C:7',
        thermo=(NASA([100.00, 980.91],
                     [ 1.65334290E+00,  3.30618161E-02,  5.62240703E-05,
                      -9.16633895E-08,  3.59156187E-11,  7.42935681E+03,
                       2.14648871E+01]),
                NASA([980.91, 5000.00],
                     [ 1.32507895E+01,  3.16428835E-02, -1.17556292E-05,
                       2.21479726E-09, -1.61719039E-13,  2.94719555E+03,
                      -4.55120499E+01])))

species(name=u'S(3349)',
        atoms='H:12 C:9',
        thermo=(NASA([100.00, 986.86],
                     [ 6.07975477E-01,  4.79090863E-02,  6.80642476E-05,
                      -1.20052014E-07,  4.79654524E-11,  2.03024052E+04,
                       2.96119123E+01]),
                NASA([986.86, 5000.00],
                     [ 1.96646167E+01,  3.62744095E-02, -1.39717395E-05,
                       2.73213344E-09, -2.04827040E-13,  1.33464498E+04,
                      -7.82595114E+01])))

species(name=u'S(3418)',
        atoms='H:12 C:9',
        thermo=(NASA([100.00, 984.67],
                     [ 5.75280777E-01,  5.28959644E-02,  4.62163973E-05,
                      -9.44456559E-08,  3.87324600E-11,  1.74092102E+04,
                       3.09925695E+01]),
                NASA([984.67, 5000.00],
                     [ 1.76261132E+01,  3.81119558E-02, -1.42572098E-05,
                       2.68963886E-09, -1.96256358E-13,  1.14101699E+04,
                      -6.44158495E+01])))

species(name=u'S(3718)',
        atoms='H:12 C:9',
        thermo=(NASA([100.00, 992.50],
                     [ 5.26807494E-01,  4.86231167E-02,  7.49333077E-05,
                      -1.27299019E-07,  5.00783383E-11,  3.23570514E+04,
                       2.35606431E+01]),
                NASA([992.50, 5000.00],
                     [ 1.94458924E+01,  4.06262577E-02, -1.61320968E-05,
                       3.15769699E-09, -2.35228860E-13,  2.52400651E+04,
                      -8.45053847E+01])))

species(name=u'S(3890)',
        atoms='H:14 C:10',
        thermo=(NASA([100.00, 1066.04],
                     [-8.36866511E-01,  9.11734277E-02, -4.03442446E-05,
                      -8.06847868E-09,  8.32995016E-12,  2.10908405E+04,
                       3.64622873E+01]),
                NASA([1066.04, 5000.00],
                     [ 1.84323227E+01,  4.73275223E-02, -1.86897690E-05,
                       3.42943587E-09, -2.38675945E-13,  1.53655751E+04,
                      -6.53164858E+01])))

species(name=u'X(1)',
        atoms='X:1',
        thermo=(NASA([100.00, 1554.80],
                     [ 7.10139498E-03, -4.25619522E-05,  8.98533016E-08,
                      -7.80193649E-11,  2.32465471E-14, -8.76101712E-01,
                      -3.11211229E-02]),
                NASA([1554.80, 5000.00],
                     [ 1.60299900E-01, -2.52235409E-04,  1.14181275E-07,
                      -1.21471653E-11,  3.85790025E-16, -7.08100885E+01,
                      -9.09527530E-01])))

species(name=u'HX(5)',
        atoms='H:1 X:1',
        thermo=(NASA([100.00, 952.91],
                     [-3.80965452E-01,  5.47228709E-03,  2.60912778E-06,
                      -9.64961980E-09,  4.63946753E-12, -3.62029043E+03,
                       1.01725550E+00]),
                NASA([952.91, 5000.00],
                     [ 2.80339655E+00, -5.41047017E-04,  4.99507978E-07,
                      -7.54963647E-11,  3.06772366E-15, -4.56103985E+03,
                      -1.59436787E+01])))

species(name=u'C2H3X(37)',
        atoms='H:3 C:2 X:1',
        thermo=(NASA([100.00, 928.62],
                     [ 3.83091018E+00, -8.76381562E-03,  6.97956896E-05,
                      -8.67969174E-08,  3.33218121E-11,  1.24795184E+04,
                      -1.81151753E+01]),
                NASA([928.62, 5000.00],
                     [ 8.78054562E+00,  1.92497720E-03,  8.25825014E-07,
                      -1.63749818E-10,  5.71728318E-15,  1.01801153E+04,
                      -4.90588618E+01])))

species(name=u'C4H5X(80)',
        atoms='H:5 C:4 X:1',
        thermo=(NASA([100.00, 936.52],
                     [ 2.68471723E+00,  1.36244496E-02,  5.32591849E-05,
                      -8.32912448E-08,  3.41499374E-11,  1.45727486E+04,
                      -1.06510487E+01]),
                NASA([936.52, 5000.00],
                     [ 1.29012266E+01,  8.96921861E-03, -1.71920076E-06,
                       2.89744517E-10, -2.58686364E-14,  1.09497097E+04,
                      -6.83963397E+01])))

species(name=u'C4H5X(81)',
        atoms='H:5 C:4 X:1',
        thermo=(NASA([100.00, 928.63],
                     [ 2.64232495E+00,  8.31109593E-03,  8.12146261E-05,
                      -1.21398701E-07,  4.98630759E-11,  1.97556574E+04,
                      -1.03932963E+01]),
                NASA([928.63, 5000.00],
                     [ 1.69490474E+01,  2.00818812E-03,  2.03468841E-06,
                      -4.02657023E-10,  1.85400094E-14,  1.47131630E+04,
                      -9.11990785E+01])))

species(name=u'C6H7X(132)',
        atoms='H:7 C:6 X:1',
        thermo=(NASA([100.00, 939.12],
                     [ 1.23971063E+00,  4.15294424E-02,  2.87312030E-05,
                      -7.68516542E-08,  3.51745289E-11,  2.00393518E+04,
                      -4.03285459E+00]),
                NASA([939.12, 5000.00],
                     [ 1.93724853E+01,  1.27701081E-02, -2.75741682E-06,
                       4.63865028E-10, -3.86965214E-14,  1.44960216E+04,
                      -1.01754711E+02])))

species(name=u'SX(324)',
        atoms='H:15 C:12 X:1',
        thermo=(NASA([100.00, 987.58],