units(length='cm', time='s', quantity='mol', act_energy='kcal/mol')

ideal_gas(name='gas',
          elements="H D T C Ci O Oi N Ne Ar He Si S Cl X",
          species="""n-heptane   Ar          He          Ne
                     N2          C2H4(2)     C4H8-1(3)   C4H8-2(4)
                     C4H6(7)     C6H8(9)     C3H6(32)    H2(68)
                     C6H9(136)   S(163)      S(181)      S(185)
                     S(244)      S(264)      C6H10(651)  C8H12(652)
                     C5H8c(817)  S(889)      S(1018)     S(1382)
                     S(1771)     CH4(1890)   S(1952)     C2H6(1953)
                     S(2050)     S(2052)     S(2058)     S(2061)
                     S(2063)     S(2346)     C4H8(2491)  S(2959)
                     S(2987)     S(3144)     S(3428)     S(3476)
                     S(3479)     C7H8(4108)  C7H7(4115)  S(7766)
                     S(8057)     S(8407)     S(8865)     S(9583)""",
          reactions='gas-*',
          initial_state=state(temperature=300.0, pressure=OneAtm))

ideal_interface(name='surface1',
                elements="H D T C Ci O Oi N Ne Ar He Si S Cl X",
                species="""X(1)        HX(5)       C2H3X(37)   allylX(38)
                          CH3X(39)    C2H5X(40)   C4H7X(41)   C4H7X(42)
                          C4H7X(43)   C4H7X(44)   C3H5X(45)   C4H5X(80)
                          C4H5X(81)   C6H9X(98)   SX(109)     SX(110)
                          C6H9X(159)  SX(160)     C6H9X(192)  SX(197)
                          SX(198)     SX(407)     SX(409)     SX(410)
                          SX(411)     SX(412)     SX(413)     SX(414)
                          SX(415)     SX(417)     SX(418)     SX(419)
                          SX(420)     SX(541)     SX(542)     SX(543)
                          SX(545)     SX(547)     SX(550)     SX(552)
                          SX(553)     C6H9X(642)  C5H7X(645)  SX(706)
                          SX(708)     SX(711)     C6H9X(822)  C6H9X(823)
                          C6H9X(824)  SX(860)     SX(861)     SX(862)
                          SX(863)     SX(950)     SX(977)     SX(989)
                          SX(990)     SX(991)     SX(1066)    SX(1067)
                          SX(1069)    SX(1070)    SX(1072)    SX(1073)
                          SX(1183)    SX(1195)    SX(1208)    SX(1210)
                          SX(1213)    SX(1237)    SX(1259)    SX(1260)
                          SX(1261)    SX(1331)    SX(1378)    SX(1402)
                          SX(1428)    SX(1429)    SX(1459)    SX(1461)
                          SX(1490)    SX(1517)    SX(1520)    SX(1550)
                          SX(1763)    SX(1790)    SX(1955)    SX(1991)
                          SX(2026)    SX(2133)    SX(2134)    SX(2267)
                          SX(2315)    SX(2646)    SX(2994)    SX(2995)
                          SX(2997)    SX(2998)    SX(2999)    SX(3106)
                          SX(3108)    SX(3472)    SX(3572)    SX(3627)
                          SX(3743)    SX(3747)    SX(3748)    SX(3755)
                          SX(3756)    SX(3762)    SX(3763)    SX(3766)
                          SX(3767)    SX(3770)    SX(3771)    SX(3772)
                          SX(3775)    SX(3776)    SX(3777)    SX(3785)
                          SX(3786)    SX(3792)    SX(3803)    SX(3804)
                          SX(3812)    SX(3813)    SX(3827)    SX(3828)
                          SX(3829)    SX(3835)    SX(3836)    SX(3837)
                          SX(3849)    SX(3862)    SX(3863)    SX(3875)
                          SX(3876)    SX(3881)    SX(3882)    SX(3883)
                          SX(3884)    SX(3911)    SX(3912)    SX(3919)
                          SX(3920)    SX(3931)    SX(3932)    SX(3933)
                          SX(3938)    SX(3939)    SX(3985)    SX(3997)
                          SX(3998)    SX(4010)    SX(4011)    SX(4012)
                          SX(4015)    SX(4016)    SX(4023)    SX(4045)
                          SX(4049)    SX(4050)    SX(4056)    SX(4057)
                          SX(4061)    SX(4069)    SX(4070)    SX(4095)
                          SX(4097)    SX(4100)    SX(4159)    SX(4160)
                          SX(4351)    SX(4398)    SX(4399)    SX(4464)
                          SX(4473)    SX(4592)    SX(5651)    SX(5770)
                          SX(5771)    SX(6353)    SX(6630)    SX(6637)
                          SX(6640)    SX(6867)    SX(7142)    SX(7143)
                          SX(7266)    SX(7367)    SX(7368)    SX(7369)
                          SX(7376)    SX(7378)    SX(7383)    SX(7384)
                          SX(7385)    SX(7386)    SX(7405)    SX(7406)
                          SX(7423)    SX(7424)    SX(7443)    SX(7450)
                          SX(7456)    SX(7468)    SX(7497)    SX(7605)
                          SX(7606)    SX(7613)    SX(7625)    SX(7626)
                          SX(7635)    SX(7658)    SX(7668)    SX(7678)
                          SX(7704)    SX(7705)    SX(7706)    SX(7753)
                          SX(7757)    SX(7882)    SX(7883)    SX(7909)
                          SX(8047)    SX(8397)    SX(8423)    SX(8424)
                          SX(8805)    SX(8806)    SX(8832)    SX(8854)
                          SX(8857)    SX(9009)    SX(9033)    SX(9079)
                          SX(9100)    SX(9125)    SX(9177)    SX(9178)
                          SX(9201)    SX(9374)    SX(9421)    SX(9422)
                          SX(9576)    SX(9930)    SX(9937)""",
                site_density=2.72e-09,
                phases="gas",
          reactions='surface1-*',
                initial_state=state(temperature=300.0, pressure=OneAtm))

#-------------------------------------------------------------------------------
# Element data
#-------------------------------------------------------------------------------

element(symbol=u'X', atomic_mass=195.083)
element(symbol=u'Ci', atomic_mass=13.003)
element(symbol=u'D', atomic_mass=2.014)
element(symbol=u'Oi', atomic_mass=18.0)
element(symbol=u'T', atomic_mass=3.016)
#-------------------------------------------------------------------------------
# Species data
#-------------------------------------------------------------------------------

species(name=u'n-heptane',
        atoms='H:16 C:7',
        thermo=(NASA([100.00, 1262.73],
                     [-2.91681405E-03,  7.69373649E-02, -3.48025563E-05,
                       1.86095180E-09,  2.01573617E-12, -2.57829342E+04,
                       3.00312148E+01]),
                NASA([1262.73, 5000.00],
                     [ 1.38377915E+01,  4.85945016E-02, -1.95474548E-05,
                       3.52837178E-09, -2.39064676E-13, -3.05141556E+04,
                      -4.48642836E+01])))

species(name=u'Ar',
        atoms='Ar:1',
        thermo=(NASA([200.00, 1000.00],
                     [ 2.50000000E+00,  0.00000000E+00,  0.00000000E+00,
                       0.00000000E+00,  0.00000000E+00, -7.45375000E+02,
                       4.37967000E+00]),
                NASA([1000.00, 6000.00],
                     [ 2.50000000E+00,  0.00000000E+00,  0.00000000E+00,
                       0.00000000E+00,  0.00000000E+00, -7.45375000E+02,
                       4.37967000E+00])))

species(name=u'He',
        atoms='He:1',
        thermo=(NASA([200.00, 1000.00],
                     [ 2.50000000E+00,  0.00000000E+00,  0.00000000E+00,
                       0.00000000E+00,  0.00000000E+00, -7.45375000E+02,
                       9.28724000E-01]),
                NASA([1000.00, 6000.00],
                     [ 2.50000000E+00,  0.00000000E+00,  0.00000000E+00,
                       0.00000000E+00,  0.00000000E+00, -7.45375000E+02,
                       9.28724000E-01])))

species(name=u'Ne',
        atoms='Ne:1',
        thermo=(NASA([200.00, 1000.00],
                     [ 2.50000000E+00,  0.00000000E+00,  0.00000000E+00,
                       0.00000000E+00,  0.00000000E+00, -7.45375000E+02,
                       3.35532000E+00]),
                NASA([1000.00, 6000.00],
                     [ 2.50000000E+00,  0.00000000E+00,  0.00000000E+00,
                       0.00000000E+00,  0.00000000E+00, -7.45375000E+02,
                       3.35532000E+00])))

species(name=u'N2',
        atoms='N:2',
        thermo=(NASA([200.00, 1000.00],
                     [ 3.53101000E+00, -1.23661000E-04, -5.02999000E-07,
                       2.43531000E-09, -1.40881000E-12, -1.04698000E+03,
                       2.96747000E+00]),
                NASA([1000.00, 6000.00],
                     [ 2.95258000E+00,  1.39690000E-03, -4.92632000E-07,
                       7.86010000E-11, -4.60755000E-15, -9.23949000E+02,
                       5.87189000E+00])))

species(name=u'C2H4(2)',
        atoms='H:4 C:2',
        thermo=(NASA([100.00, 979.36],
                     [ 3.97471606E+00, -4.75844285E-03,  4.16783770E-05,
                      -4.51392516E-08,  1.54224761E-11,  4.91540746E+03,
                       3.62430844E+00]),
                NASA([979.36, 5000.00],
                     [ 3.55660610E+00,  1.10627464E-02, -4.17019079E-06,
                       7.85586770E-10, -5.70060829E-14,  4.32046489E+03,
                       2.17719479E+00])))

species(name=u'C4H8-1(3)',
        atoms='H:8 C:4',
        thermo=(NASA([100.00, 1007.28],
                     [ 2.58772906E+00,  2.32777969E-02,  1.93412349E-05,
                      -3.55496333E-08,  1.36906009E-11, -1.91872926E+03,
                       1.45750618E+01]),
                NASA([1007.28, 5000.00],
                     [ 7.20517168E+00,  2.36361568E-02, -9.03150028E-06,
                       1.65392666E-09, -1.16019260E-13, -3.79733937E+03,
                      -1.24426257E+01])))

species(name=u'C4H8-2(4)',
        atoms='H:8 C:4',
        thermo=(NASA([100.00, 1157.79],
                     [ 2.51998327E+00,  2.76812799E-02,  9.43783469E-07,
                      -1.25009101E-08,  4.67144666E-12, -3.34374767E+03,
                       1.30195623E+01]),
                NASA([1157.79, 5000.00],
                     [ 6.04225708E+00,  2.60072350E-02, -1.04843374E-05,
                       1.90880922E-09, -1.30600505E-13, -4.86276511E+03,
                      -7.52715109E+00])))

species(name=u'C4H6(7)',
        atoms='H:6 C:4',
        thermo=(NASA([100.00, 946.05],
                     [ 2.80599310E+00,  1.02584471E-02,  6.17260255E-05,
                      -9.01642687E-08,  3.59116961E-11,  1.16584972E+04,
                       1.20621434E+01]),
                NASA([946.05, 5000.00],
                     [ 1.24693720E+01,  1.00553901E-02, -2.41206872E-06,
                       4.57077303E-10, -3.93160571E-14,  8.01077795E+03,
                      -4.36374720E+01])))

species(name=u'C6H8(9)',
        atoms='H:8 C:6',
        thermo=(NASA([100.00, 941.22],
                     [ 1.38427980E+00,  4.14411503E-02,  1.94287417E-05,
                      -6.16688700E-08,  2.86503633E-11,  1.76317461E+04,
                       1.93257509E+01]),
                NASA([941.22, 5000.00],
                     [ 1.69619680E+01,  1.57221707E-02, -4.10118367E-06,
                       6.95736344E-10, -5.26521484E-14,  1.29061672E+04,
                      -6.44097553E+01])))

species(name=u'C3H6(32)',
        atoms='H:6 C:3',
        thermo=(NASA([100.00, 983.75],
                     [ 3.31912102E+00,  8.17958674E-03,  3.34736123E-05,
                      -4.36193684E-08,  1.58213364E-11,  7.49325328E+02,
                       9.54025058E+00]),
                NASA([983.75, 5000.00],
                     [ 5.36755173E+00,  1.70743019E-02, -6.35107626E-06,
                       1.16619529E-09, -8.27620279E-14, -4.87138326E+02,
                      -4.54467529E+00])))

species(name=u'H2(68)',
        atoms='H:2',
        thermo=(NASA([100.00, 1959.08],
                     [ 3.43536412E+00,  2.12710353E-04, -2.78625043E-07,
                       3.40267167E-10, -7.76031998E-14, -1.03135984E+03,
                      -3.90841732E+00]),
                NASA([1959.08, 5000.00],
                     [ 2.78816583E+00,  5.87640942E-04,  1.59010417E-07,
                      -5.52739026E-11,  4.34310984E-15, -5.96144270E+02,
                       1.12732655E-01])))

species(name=u'C6H9(136)',
        atoms='H:9 C:6',
        thermo=(NASA([100.00, 995.34],
                     [ 1.62522454E+00,  3.93401586E-02,  1.78978273E-05,
                      -4.78993847E-08,  2.01402388E-11,  1.69431093E+04,
                       2.25224222E+01]),
                NASA([995.34, 5000.00],
                     [ 1.22021413E+01,  2.74567638E-02, -1.03424270E-05,
                       1.92565312E-09, -1.38069748E-13,  1.33207104E+04,
                      -3.60755769E+01])))

species(name=u'S(163)',
        atoms='H:14 C:10',
        thermo=(NASA([100.00, 1005.33],
                     [-8.70330413E-01,  8.89793335E-02, -2.38552724E-05,
                      -3.15628111E-08,  1.81664076E-11,  3.78335548E+04,
                       4.06086741E+01]),
                NASA([1005.33, 5000.00],
                     [ 2.02610588E+01,  4.45995858E-02, -1.68699763E-05,
                       3.08363695E-09, -2.16972192E-13,  3.15786714E+04,
                      -7.14276628E+01])))

species(name=u'S(181)',
        atoms='H:16 C:12',
        thermo=(NASA([100.00, 985.43],
                     [-1.88304682E+00,  1.07042194E-01, -2.70554103E-05,
                      -4.30549514E-08,  2.47781880E-11,  4.00783494E+04,
                       4.74620913E+01]),
                NASA([985.43, 5000.00],
                     [ 2.44922294E+01,  5.06805346E-02, -1.84366585E-05,
                       3.32433721E-09, -2.33631810E-13,  3.24185269E+04,
                      -9.18863874E+01])))

species(name=u'S(185)',
        atoms='H:16 C:12',
        thermo=(NASA([100.00, 992.45],
                     [-1.36726188E+00,  9.09276671E-02,  1.69902518E-05,
                      -8.53947805E-08,  3.84301239E-11,  2.11993195E+04,
                       3.87738109E+01]),
                NASA([992.45, 5000.00],
                     [ 2.42201531E+01,  5.14040751E-02, -1.94056379E-05,
                       3.62910452E-09, -2.61722320E-13,  1.29880616E+04,
                      -1.00257920E+02])))

species(name=u'S(244)',
        atoms='H:16 C:12',
        thermo=(NASA([100.00, 1082.71],
                     [-1.42165646E+00,  1.00366054E-01, -2.86690015E-05,
                      -2.45430021E-08,  1.37134617E-11,  2.67269131E+04,
                       3.45501008E+01]),
                NASA([1082.71, 5000.00],
                     [ 1.94956582E+01,  6.02181764E-02, -2.44875026E-05,
                       4.55572743E-09, -3.18938634E-13,  2.00211421E+04,
                      -7.80762928E+01])))

species(name=u'S(264)',
        atoms='H:16 C:12',
        thermo=(NASA([100.00, 967.86],
                     [-1.32209228E+00,  8.47378361E-02,  4.59787499E-05,
                      -1.23781967E-07,  5.42497769E-11,  2.23199283E+04,
                       3.57020946E+01]),
                NASA([967.86, 5000.00],
                     [ 2.71811605E+01,  4.57697461E-02, -1.58000646E-05,
                       2.92345730E-09, -2.14846023E-13,  1.31102045E+04,
                      -1.19952912E+02])))

species(name=u'C6H10(651)',
        atoms='H:10 C:6',
        thermo=(NASA([100.00, 1020.63],
                     [ 9.97427413E-01,  5.59777045E-02, -2.05880600E-05,
                      -1.17182304E-08,  8.13452041E-12,  6.30749855E+03,
                       2.38941836E+01]),
                NASA([1020.63, 5000.00],
                     [ 1.33828218E+01,  2.83661253E-02, -1.07663110E-05,
                       1.95749020E-09, -1.36589418E-13,  2.68926840E+03,
                      -4.14511818E+01])))

species(name=u'C8H12(652)',
        atoms='H:12 C:8',
        thermo=(NASA([100.00, 1002.94],
                     [ 1.69489980E-02,  7.28189377E-02, -2.16585698E-05,
                      -2.40807783E-08,  1.44597041E-11,  1.38562447E+04,
                       3.07679077E+01]),
                NASA([1002.94, 5000.00],
                     [ 1.77276883E+01,  3.45993801E-02, -1.29781828E-05,
                       2.37500136E-09, -1.67643536E-13,  8.67334638E+03,
                      -6.28559377E+01])))

species(name=u'C5H8c(817)',
        atoms='H:8 C:5',
        thermo=(NASA([100.00, 1004.86],
                     [ 1.98273955E+00,  3.49998332E-02,  6.98515281E-06,
                      -3.05031334E-08,  1.32246652E-11,  6.96521034E+03,
                       1.60818191E+01]),
                NASA([1004.86, 5000.00],
                     [ 1.01246420E+01,  2.42323877E-02, -9.24886971E-06,
                       1.70115950E-09, -1.20059732E-13,  4.23624320E+03,
                      -2.86745770E+01])))

species(name=u'S(889)',
        atoms='H:18 C:12',
        thermo=(NASA([100.00, 1043.00],
                     [-2.42964735E+00,  1.21600857E-01, -5.92243817E-05,
                      -7.36232612E-09,  1.08372833E-11,  3.04699784E+04,
                       4.98767523E+01]),
                NASA([1043.00, 5000.00],
                     [ 2.40506793E+01,  5.80556061E-02, -2.24990947E-05,
                       4.10281233E-09, -2.85477268E-13,  2.28787528E+04,
                      -8.89013084E+01])))

species(name=u'S(1018)',
        atoms='H:12 C:8',
        thermo=(NASA([100.00, 1016.52],
                     [-1.10429280E-01,  7.70814645E-02, -3.47833140E-05,
                      -1.00302869E-08,  9.42640217E-12,  1.21750142E+04,
                       2.97645889E+01]),
                NASA([1016.52, 5000.00],
                     [ 1.75623558E+01,  3.50022757E-02, -1.32158186E-05,
                       2.40320183E-09, -1.68059077E-13,  7.16317806E+03,
                      -6.27651255E+01])))

species(name=u'S(1382)',
        atoms='H:12 C:8',
        thermo=(NASA([100.00, 966.56],
                     [-1.28183216E-01,  7.35572918E-02, -1.44333618E-05,
                      -3.89698452E-08,  2.17299794E-11,  1.04422483E+04,
                       2.89601759E+01]),
                NASA([966.56, 5000.00],
                     [ 2.02785414E+01,  2.99584765E-02, -1.01704686E-05,
                       1.81720743E-09, -1.29537878E-13,  4.58909334E+03,
                      -7.86679341E+01])))

species(name=u'S(1771)',
        atoms='H:14 C:8',
        thermo=(NASA([100.00, 1014.29],
                     [-3.67121846E-01,  8.14233516E-02, -3.11110886E-05,
                      -1.65487757E-08,  1.19185866E-11, -3.02333684E+03,
                       3.00035003E+01]),
                NASA([1014.29, 5000.00],
                     [ 1.79686767E+01,  3.98264136E-02, -1.50150741E-05,
                       2.72531006E-09, -1.90287561E-13, -8.32275149E+03,
                      -6.65042554E+01])))

species(name=u'CH4(1890)',
        atoms='H:4 C:1',
        thermo=(NASA([100.00, 1084.12],
                     [ 4.20541524E+00, -5.35557362E-03,  2.51123265E-05,
                      -2.13762843E-08,  5.97523937E-12, -1.01619433E+04,
                      -9.21279283E-01]),
                NASA([1084.12, 5000.00],
                     [ 9.08265721E-01,  1.14540858E-02, -4.57173828E-06,
                       8.29191671E-10, -5.66314895E-14, -9.71997444E+03,
                       1.39930944E+01])))

species(name=u'S(1952)',
        atoms='H:12 C:7',
        thermo=(NASA([100.00, 1783.81],
                     [ 3.90326636E-01,  6.99570089E-02, -4.36036386E-05,
                       1.36989862E-08, -1.75194759E-12,  3.91426270E+03,
                       2.69445029E+01]),
                NASA([1783.81, 5000.00],
                     [ 1.66532980E+01,  3.34889164E-02, -1.29376150E-05,
                       2.23806923E-09, -1.45699842E-13, -1.88772406E+03,
                      -6.09270868E+01])))

species(name=u'C2H6(1953)',
        atoms='H:6 C:2',
        thermo=(NASA([100.00, 1012.42],
                     [ 3.72239291E+00,  1.65083841E-03,  3.44175530E-05,
                      -3.76858229E-08,  1.24450657E-11, -1.15575901E+04,
                       4.68247999E+00]),
                NASA([1012.42, 5000.00],
                     [ 2.82848257E+00,  1.73040568E-02, -6.73334245E-06,
                       1.23742024E-09, -8.65676410E-14, -1.19978080E+04,
                       5.93811707E+00])))

species(name=u'S(2050)',
        atoms='H:16 C:10',
        thermo=(NASA([100.00, 1123.67],
                     [-1.31764698E+00,  1.00170049E-01, -4.80609638E-05,
                      -2.83806667E-09,  6.28995927E-12,  9.62629007E+03,
                       3.99206955E+01]),
                NASA([1123.67, 5000.00],
                     [ 2.04321070E+01,  5.14203040E-02, -2.12619918E-05,
                       3.97217292E-09, -2.77843846E-13,  2.92812856E+03,
                      -7.56004118E+01])))

species(name=u'S(2052)',
        atoms='H:16 C:10',
        thermo=(NASA([100.00, 1529.33],
                     [-1.27998659E+00,  1.07061427E-01, -7.54810852E-05,
                       2.76060942E-08, -4.15562285E-12,  9.21403976E+03,
                       4.00297764E+01]),
                NASA([1529.33, 5000.00],
                     [ 2.00858107E+01,  5.11784182E-02, -2.06695808E-05,
                       3.71251848E-09, -2.49716375E-13,  2.67899727E+03,
                      -7.21245779E+01])))

species(name=u'S(2058)',
        atoms='H:14 C:8',
        thermo=(NASA([100.00, 1506.76],
                     [ 5.49675181E-02,  8.43985440E-02, -5.64633487E-05,
                       1.98661295E-08, -2.94599969E-12, -7.77393079E+02,
                       2.95663347E+01]),
                NASA([1506.76, 5000.00],
                     [ 1.39949012E+01,  4.73919655E-02, -1.96226018E-05,
                       3.56583689E-09, -2.41458224E-13, -4.97819756E+03,
                      -4.34005510E+01])))

species(name=u'S(2061)',
        atoms='H:14 C:8',
        thermo=(NASA([100.00, 1016.25],
                     [-1.96777655E-01,  7.73097837E-02, -2.22069863E-05,
                      -2.37965356E-08,  1.39851151E-11, -2.84093532E+03,
                       3.12908370E+01]),
                NASA([1016.25, 5000.00],
                     [ 1.72431734E+01,  4.07120734E-02, -1.54898359E-05,
                       2.82734689E-09, -1.98026375E-13, -8.04042418E+03,
                      -6.12697843E+01])))

species(name=u'S(2063)',
        atoms='H:14 C:8',
        thermo=(NASA([100.00, 999.32],
                     [-8.27296041E-02,  7.33926821E-02, -9.70961131E-06,
                      -3.77339221E-08,  1.91784792E-11, -2.27794802E+03,
                       3.16114703E+01]),
                NASA([999.32, 5000.00],
                     [ 1.74908493E+01,  3.99675318E-02, -1.49508424E-05,
                       2.72972667E-09, -1.92366979E-13, -7.63361766E+03,
                      -6.23819175E+01])))

species(name=u'S(2346)',
        atoms='H:16 C:10',
        thermo=(NASA([100.00, 1085.29],
                     [-1.70092362E+00,  1.10044958E-01, -7.12157681E-05,
                       1.53374028E-08,  1.69886408E-12,  4.98893716E+03,
                       3.89900867E+01]),
                NASA([1085.29, 5000.00],
                     [ 2.16427124E+01,  4.79853148E-02, -1.85808259E-05,
                       3.36146218E-09, -2.31602558E-13, -1.49004692E+03,
                      -8.20455320E+01])))

species(name=u'C4H8(2491)',
        atoms='H:8 C:4',
        thermo=(NASA([100.00, 1061.33],
                     [ 2.52504770E+00,  2.64752782E-02,  7.08359238E-06,
                      -2.07731462E-08,  8.00430055E-12, -4.02607130E+03,
                       1.28857274E+01]),
                NASA([1061.33, 5000.00],
                     [ 6.48672669E+00,  2.49943921E-02, -9.83283171E-06,
                       1.79343299E-09, -1.24008235E-13, -5.62452310E+03,
                      -1.00316397E+01])))

species(name=u'S(2959)',
        atoms='H:13 C:8',
        thermo=(NASA([100.00, 1010.24],
                     [ 8.71179980E-02,  7.21003591E-02, -1.70859268E-05,
                      -2.56945292E-08,  1.41819826E-11,  9.56141007E+03,
                       3.08789656E+01]),
                NASA([1010.24, 5000.00],
                     [ 1.56531491E+01,  4.06966790E-02, -1.53423608E-05,
                       2.77463447E-09, -1.93066484E-13,  4.87374912E+03,
                      -5.20114302E+01])))

species(name=u'S(2987)',
        atoms='H:12 C:7',
        thermo=(NASA([100.00, 1002.43],
                     [ 5.99026497E-01,  6.08356728E-02, -5.37073264E-06,
                      -3.39970972E-08,  1.67132278E-11,  1.51423754E+03,
                       2.71654250E+01]),
                NASA([1002.43, 5000.00],
                     [ 1.50955492E+01,  3.44559544E-02, -1.29812324E-05,
                       2.37752287E-09, -1.67696341E-13, -2.97306291E+03,
                      -5.06926804E+01])))

species(name=u'S(3144)',
        atoms='H:14 C:8',
        thermo=(NASA([100.00, 1061.60],
                     [-2.92612015E-01,  8.13598166E-02, -3.75111047E-05,
                      -5.26746011E-09,  6.79996745E-12, -3.15203310E+03,
                       3.11249298E+01]),
                NASA([1061.60, 5000.00],
                     [ 1.65258017E+01,  4.22160438E-02, -1.64331635E-05,
                       2.99218456E-09, -2.07335165E-13, -8.08806756E+03,
                      -5.74492182E+01])))

species(name=u'S(3428)',
        atoms='H:13 C:8',
        thermo=(NASA([100.00, 1010.24],
                     [ 8.71179980E-02,  7.21003591E-02, -1.70859268E-05,
                      -2.56945292E-08,  1.41819826E-11,  9.56141007E+03,
                       3.08789656E+01]),
                NASA([1010.24, 5000.00],
                     [ 1.56531491E+01,  4.06966790E-02, -1.53423608E-05,
                       2.77463447E-09, -1.93066484E-13,  4.87374912E+03,
                      -5.20114302E+01])))

species(name=u'S(3476)',
        atoms='H:18 C:12',
        thermo=(NASA([100.00, 1043.00],
                     [-2.42964735E+00,  1.21600857E-01, -5.92243817E-05,
                      -7.36232612E-09,  1.08372833E-11,  3.04699784E+04,
                       4.98767523E+01]),
                NASA([1043.00, 5000.00],
                     [ 2.40506793E+01,  5.80556061E-02, -2.24990947E-05,
                       4.10281233E-09, -2.85477268E-13,  2.28787528E+04,
                      -8.89013084E+01])))

species(name=u'S(3479)',
        atoms='H:18 C:12',
        thermo=(NASA([100.00, 1043.00],
                     [-2.42964735E+00,  1.21600857E-01, -5.92243817E-05,
                      -7.36232612E-09,  1.08372833E-11,  3.04699784E+04,
                       4.98767523E+01]),
                NASA([1043.00, 5000.00],
                     [ 2.40506793E+01,  5.80556061E-02, -2.24990947E-05,
                       4.10281233E-09, -2.85477268E-13,  2.28787528E+04,
                      -8.89013084E+01])))

species(name=u'C7H8(4108)',
        atoms='H:8 C:7',
        thermo=(NASA([100.00, 966.81],
                     [ 1.90138903E+00,  2.67868079E-02,  6.30523366E-05,
                      -9.95224287E-08,  3.94205761E-11,  1.54781489E+04,
                       1.80530900E+01]),
                NASA([966.81, 5000.00],
                     [ 1.41488720E+01,  2.45164605E-02, -8.51969957E-06,
                       1.61189695E-09, -1.20790154E-13,  1.08478608E+04,
                      -5.23192761E+01])))

species(name=u'C7H7(4115)',
        atoms='H:7 C:7',
        thermo=(NASA([100.00, 977.88],
                     [ 1.92000286E+00,  2.82083578E-02,  5.05306762E-05,
                      -8.41096858E-08,  3.34189485E-11,  2.32897503E+04,
                       1.62403135E+01]),
                NASA([977.88, 5000.00],
                     [ 1.37265001E+01,  2.33539089E-02, -8.65715876E-06,
                       1.66950309E-09, -1.24953783E-13,  1.89037363E+04,
                      -5.10748041E+01])))

species(name=u'S(7766)',
        atoms='H:18 C:10',
        thermo=(NASA([100.00, 1158.48],
                     [-1.73167591E+00,  1.09077891E-01, -5.83333229E-05,
                       5.40067358E-09,  3.60301005E-12, -6.92483725E+03,
                       4.08092886E+01]),
                NASA([1158.48, 5000.00],
                     [ 2.11409181E+01,  5.59043600E-02, -2.28913870E-05,
                       4.22976090E-09, -2.93014074E-13, -1.39556654E+04,
                      -8.03749852E+01])))

species(name=u'S(8057)',
        atoms='H:18 C:10',
        thermo=(NASA([100.00, 1188.78],
                     [-1.95300717E+00,  1.15046892E-01, -7.59923563E-05,
                       2.20571103E-08, -1.46154816E-12, -1.03349424E+04,
                       4.06077933E+01]),
                NASA([1188.78, 5000.00],
                     [ 2.15567328E+01,  5.36921349E-02, -2.09728234E-05,
                       3.76285270E-09, -2.55770737E-13, -1.71787854E+04,
                      -8.21540077E+01])))

species(name=u'S(8407)',
        atoms='H:18 C:10',
        thermo=(NASA([100.00, 1039.92],
                     [-1.68892614E+00,  1.04892160E-01, -3.63678012E-05,
                      -2.44904322E-08,  1.57571722E-11, -8.20566676E+03,
                       3.91111957E+01]),
                NASA([1039.92, 5000.00],
                     [ 2.26524637E+01,  5.26991456E-02, -2.08505326E-05,
                       3.87716665E-09, -2.73674615E-13, -1.55087267E+04,
                      -9.00469670E+01])))

species(name=u'S(8865)',
        atoms='H:16 C:10',
        thermo=(NASA([100.00, 1424.05],
                     [-1.53117492E+00,  1.12156235E-01, -8.51506284E-05,
                       3.40694122E-08, -5.59243571E-12,  5.51272724E+03,
                       3.79057186E+01]),
                NASA([1424.05, 5000.00],
                     [ 2.04696849E+01,  5.03580776E-02, -2.00563716E-05,