units(length='cm', time='s', quantity='mol', act_energy='kcal/mol')

ideal_gas(name='gas',
          elements="H D T C Ci O Oi N Ne Ar He Si S Cl X",
          species="""n-heptane   Ar          He          Ne
                     N2          C2H4(2)     C4H8-1(3)   C4H8-2(4)
                     C4H6(7)     C6H10(111)  C8H14(116)  C8H12(308)""",
          reactions='gas-*',
          initial_state=state(temperature=300.0, pressure=OneAtm))

ideal_interface(name='surface1',
                elements="H D T C Ci O Oi N Ne Ar He Si S Cl X",
                species="""X(1)        HX(5)       C2H3X(37)   C4H7X(41)
                          C4H7X(42)   C4H7X(43)   C4H7X(44)   C2H2X(70)
                          C6H11X(72)  C6H11X(73)  C4H5X(74)   C4H5X(81)
                          C6H9X(98)   SX(209)     C6H9X(215)  C4H7X(226)
                          SX(227)     SX(229)     SX(230)     SX(261)
                          SX(263)     SX(264)     C6H9X(268)  SX(269)
                          SX(270)     C6H9X(300)  SX(306)     SX(307)
                          C6H9X(319)  SX(328)     SX(385)     SX(388)
                          C6H9X(533)  C6H9X(534)  C6H9X(535)  SX(605)
                          C6H9X(630)  SX(654)     SX(664)     SX(684)
                          SX(685)     SX(689)     SX(715)     SX(719)
                          SX(748)     SX(749)     SX(750)     SX(752)
                          SX(754)     SX(755)     SX(817)     SX(850)
                          SX(854)     SX(886)     SX(919)     SX(1000)
                          SX(1163)    SX(1181)    SX(1182)    SX(1183)
                          SX(1199)    SX(1200)    SX(1219)    SX(1220)
                          SX(1240)    SX(1241)    SX(1280)    SX(1358)
                          SX(1359)    SX(1380)    SX(1384)    SX(1402)
                          SX(1420)    SX(1421)    SX(1422)    SX(1460)
                          SX(1461)    SX(1462)    SX(1463)    SX(1723)
                          SX(1811)    SX(1812)    SX(1946)    SX(2004)
                          SX(2005)    SX(2036)    SX(2066)    SX(2075)
                          SX(2076)    SX(2083)    SX(2091)    SX(2092)
                          SX(2093)    SX(2114)    SX(2115)    SX(2116)
                          SX(2117)    SX(2143)    SX(2144)    SX(2184)
                          SX(2185)    SX(2209)    SX(2210)    SX(2266)
                          SX(2350)    SX(2362)    SX(2372)    SX(2373)
                          SX(2374)    SX(2375)    SX(2376)    SX(2383)
                          SX(2384)    SX(2385)    SX(2438)    SX(2439)
                          SX(2440)    SX(2441)    SX(2485)    SX(2530)
                          SX(2564)    SX(2579)    SX(2580)    SX(2581)
                          SX(2646)    SX(2683)""",
                site_density=2.72e-09,
                phases="gas",
          reactions='surface1-*',
                initial_state=state(temperature=300.0, pressure=OneAtm))

#-------------------------------------------------------------------------------
# Element data
#-------------------------------------------------------------------------------

element(symbol=u'X', atomic_mass=195.083)
element(symbol=u'Ci', atomic_mass=13.003)
element(symbol=u'D', atomic_mass=2.014)
element(symbol=u'Oi', atomic_mass=18.0)
element(symbol=u'T', atomic_mass=3.016)
#-------------------------------------------------------------------------------
# Species data
#-------------------------------------------------------------------------------

species(name=u'n-heptane',
        atoms='H:16 C:7',
        thermo=(NASA([100.00, 1262.73],
                     [-2.91681405E-03,  7.69373649E-02, -3.48025563E-05,
                       1.86095180E-09,  2.01573617E-12, -2.57829342E+04,
                       3.00312148E+01]),
                NASA([1262.73, 5000.00],
                     [ 1.38377915E+01,  4.85945016E-02, -1.95474548E-05,
                       3.52837178E-09, -2.39064676E-13, -3.05141556E+04,
                      -4.48642836E+01])))

species(name=u'Ar',
        atoms='Ar:1',
        thermo=(NASA([200.00, 1000.00],
                     [ 2.50000000E+00,  0.00000000E+00,  0.00000000E+00,
                       0.00000000E+00,  0.00000000E+00, -7.45375000E+02,
                       4.37967000E+00]),
                NASA([1000.00, 6000.00],
                     [ 2.50000000E+00,  0.00000000E+00,  0.00000000E+00,
                       0.00000000E+00,  0.00000000E+00, -7.45375000E+02,
                       4.37967000E+00])))

species(name=u'He',
        atoms='He:1',
        thermo=(NASA([200.00, 1000.00],
                     [ 2.50000000E+00,  0.00000000E+00,  0.00000000E+00,
                       0.00000000E+00,  0.00000000E+00, -7.45375000E+02,
                       9.28724000E-01]),
                NASA([1000.00, 6000.00],
                     [ 2.50000000E+00,  0.00000000E+00,  0.00000000E+00,
                       0.00000000E+00,  0.00000000E+00, -7.45375000E+02,
                       9.28724000E-01])))

species(name=u'Ne',
        atoms='Ne:1',
        thermo=(NASA([200.00, 1000.00],
                     [ 2.50000000E+00,  0.00000000E+00,  0.00000000E+00,
                       0.00000000E+00,  0.00000000E+00, -7.45375000E+02,
                       3.35532000E+00]),
                NASA([1000.00, 6000.00],
                     [ 2.50000000E+00,  0.00000000E+00,  0.00000000E+00,
                       0.00000000E+00,  0.00000000E+00, -7.45375000E+02,
                       3.35532000E+00])))

species(name=u'N2',
        atoms='N:2',
        thermo=(NASA([200.00, 1000.00],
                     [ 3.53101000E+00, -1.23661000E-04, -5.02999000E-07,
                       2.43531000E-09, -1.40881000E-12, -1.04698000E+03,
                       2.96747000E+00]),
                NASA([1000.00, 6000.00],
                     [ 2.95258000E+00,  1.39690000E-03, -4.92632000E-07,
                       7.86010000E-11, -4.60755000E-15, -9.23949000E+02,
                       5.87189000E+00])))

species(name=u'C2H4(2)',
        atoms='H:4 C:2',
        thermo=(NASA([100.00, 979.36],
                     [ 3.97471606E+00, -4.75844285E-03,  4.16783770E-05,
                      -4.51392516E-08,  1.54224761E-11,  4.91540746E+03,
                       3.62430844E+00]),
                NASA([979.36, 5000.00],
                     [ 3.55660610E+00,  1.10627464E-02, -4.17019079E-06,
                       7.85586770E-10, -5.70060829E-14,  4.32046489E+03,
                       2.17719479E+00])))

species(name=u'C4H8-1(3)',
        atoms='H:8 C:4',
        thermo=(NASA([100.00, 1007.28],
                     [ 2.58772906E+00,  2.32777969E-02,  1.93412349E-05,
                      -3.55496333E-08,  1.36906009E-11, -1.91872926E+03,
                       1.45750618E+01]),
                NASA([1007.28, 5000.00],
                     [ 7.20517168E+00,  2.36361568E-02, -9.03150028E-06,
                       1.65392666E-09, -1.16019260E-13, -3.79733937E+03,
                      -1.24426257E+01])))

species(name=u'C4H8-2(4)',
        atoms='H:8 C:4',
        thermo=(NASA([100.00, 1157.79],
                     [ 2.51998327E+00,  2.76812799E-02,  9.43783469E-07,
                      -1.25009101E-08,  4.67144666E-12, -3.34374767E+03,
                       1.30195623E+01]),
                NASA([1157.79, 5000.00],
                     [ 6.04225708E+00,  2.60072350E-02, -1.04843374E-05,
                       1.90880922E-09, -1.30600505E-13, -4.86276511E+03,
                      -7.52715109E+00])))

species(name=u'C4H6(7)',
        atoms='H:6 C:4',
        thermo=(NASA([100.00, 946.05],
                     [ 2.80599310E+00,  1.02584471E-02,  6.17260255E-05,
                      -9.01642687E-08,  3.59116961E-11,  1.16584972E+04,
                       1.20621434E+01]),
                NASA([946.05, 5000.00],
                     [ 1.24693720E+01,  1.00553901E-02, -2.41206872E-06,
                       4.57077303E-10, -3.93160571E-14,  8.01077795E+03,
                      -4.36374720E+01])))

species(name=u'C6H10(111)',
        atoms='H:10 C:6',
        thermo=(NASA([100.00, 1036.89],
                     [ 1.50874221E+00,  4.27939676E-02,  1.00407781E-05,
                      -3.76644958E-08,  1.56320088E-11,  7.74480595E+03,
                       2.33493905E+01]),
                NASA([1036.89, 5000.00],
                     [ 1.16601041E+01,  3.10397815E-02, -1.26024374E-05,
                       2.38495409E-09, -1.70150727E-13,  4.16633351E+03,
                      -3.30972272E+01])))

species(name=u'C8H14(116)',
        atoms='H:14 C:8',
        thermo=(NASA([100.00, 1131.55],
                     [-3.85809817E-02,  7.63741971E-02, -3.10952919E-05,
                      -5.90347867E-09,  5.52756901E-12,  2.09688836E+03,
                       3.33418113E+01]),
                NASA([1131.55, 5000.00],
                     [ 1.48574659E+01,  4.52274824E-02, -1.83215003E-05,
                       3.37064281E-09, -2.33159586E-13, -2.65132869E+03,
                      -4.64489898E+01])))

species(name=u'C8H12(308)',
        atoms='H:12 C:8',
        thermo=(NASA([100.00, 1002.94],
                     [ 1.69489980E-02,  7.28189377E-02, -2.16585698E-05,
                      -2.40807783E-08,  1.44597041E-11,  1.38562447E+04,
                       3.07679077E+01]),
                NASA([1002.94, 5000.00],
                     [ 1.77276883E+01,  3.45993801E-02, -1.29781828E-05,
                       2.37500136E-09, -1.67643536E-13,  8.67334638E+03,
                      -6.28559377E+01])))

species(name=u'X(1)',
        atoms='X:1',
        thermo=(NASA([100.00, 1554.80],
                     [ 7.10139498E-03, -4.25619522E-05,  8.98533016E-08,
                      -7.80193649E-11,  2.32465471E-14, -8.76101712E-01,
                      -3.11211229E-02]),
                NASA([1554.80, 5000.00],
                     [ 1.60299900E-01, -2.52235409E-04,  1.14181275E-07,
                      -1.21471653E-11,  3.85790025E-16, -7.08100885E+01,
                      -9.09527530E-01])))

species(name=u'HX(5)',
        atoms='H:1 X:1',
        thermo=(NASA([100.00, 952.91],
                     [-3.80965452E-01,  5.47228709E-03,  2.60912778E-06,
                      -9.64961980E-09,  4.63946753E-12, -9.42254356E+03,
                       1.01725550E+00]),
                NASA([952.91, 5000.00],
                     [ 2.80339655E+00, -5.41047017E-04,  4.99507978E-07,
                      -7.54963647E-11,  3.06772366E-15, -1.03632930E+04,
                      -1.59436787E+01])))

species(name=u'C2H3X(37)',
        atoms='H:3 C:2 X:1',
        thermo=(NASA([100.00, 928.62],
                     [ 3.83091018E+00, -8.76381562E-03,  6.97956896E-05,
                      -8.67969174E-08,  3.33218121E-11,  8.75012182E+02,
                      -1.81151753E+01]),
                NASA([928.62, 5000.00],
                     [ 8.78054562E+00,  1.92497720E-03,  8.25825014E-07,
                      -1.63749818E-10,  5.71728318E-15, -1.42439094E+03,
                      -4.90588618E+01])))

species(name=u'C4H7X(41)',
        atoms='H:7 C:4 X:1',
        thermo=(NASA([100.00, 971.02],
                     [ 2.64365035E+00,  1.79007589E-02,  4.24443189E-05,
                      -6.44028479E-08,  2.49593993E-11, -6.62353538E+03,
                      -6.69991651E+00]),
                NASA([971.02, 5000.00],
                     [ 9.25871667E+00,  2.04064152E-02, -7.39143670E-06,
                       1.37021231E-09, -9.94133357E-14, -9.31101951E+03,
                      -4.56426102E+01])))

species(name=u'C4H7X(42)',
        atoms='H:7 C:4 X:1',
        thermo=(NASA([100.00, 986.67],
                     [ 2.45798205E+00,  2.47217336E-02,  2.01285964E-05,
                      -4.02735564E-08,  1.62485845E-11,  1.77865167E+03,
                      -5.12991781E+00]),
                NASA([986.67, 5000.00],
                     [ 8.87898065E+00,  2.09043993E-02, -7.83851223E-06,
                       1.44076477E-09, -1.02346878E-13, -5.69704442E+02,
                      -4.15007572E+01])))

species(name=u'C4H7X(43)',
        atoms='H:7 C:4 X:1',
        thermo=(NASA([100.00, 965.06],
                     [ 2.56877619E+00,  1.97500674E-02,  3.72961301E-05,
                      -6.04017092E-08,  2.39989018E-11, -6.89495624E+03,
                      -8.56564322E+00]),
                NASA([965.06, 5000.00],
                     [ 9.89778724E+00,  1.86142959E-02, -6.38884453E-06,
                       1.17309353E-09, -8.55406646E-14, -9.67124745E+03,
                      -5.07182348E+01])))

species(name=u'C4H7X(44)',
        atoms='H:7 C:4 X:1',
        thermo=(NASA([100.00, 949.35],
                     [ 2.54254539E+00,  1.77389010E-02,  4.93877612E-05,
                      -7.72878178E-08,  3.10660019E-11, -5.66932294E+03,
                      -8.46783968E+00]),
                NASA([949.35, 5000.00],
                     [ 1.15220223E+01,  1.60005944E-02, -4.89823595E-06,
                       8.83972924E-10, -6.63710570E-14, -9.00085528E+03,
                      -5.98888028E+01])))

species(name=u'C2H2X(70)',
        atoms='H:2 C:2 X:1',
        thermo=(NASA([100.00, 1146.89],
                     [-1.35665997E+00,  2.85338019E-02, -3.11240758E-05,
                       1.70134067E-08, -3.63322671E-12, -3.79848280E+03,
                       3.79543665E+00]),
                NASA([1146.89, 5000.00],
                     [ 4.86807469E+00,  6.82428196E-03, -2.73110334E-06,
                       5.09415334E-10, -3.57467832E-14, -5.22632908E+03,
                      -2.70885611E+01])))

species(name=u'C6H11X(72)',
        atoms='H:11 C:6 X:1',
        thermo=(NASA([100.00, 968.49],
                     [ 1.21380653E+00,  4.74385684E-02,  1.70473783E-05,
                      -5.31710482E-08,  2.32909786E-11, -5.22902016E+03,
                       5.18267936E+00]),
                NASA([968.49, 5000.00],
                     [ 1.29066493E+01,  3.25069116E-02, -1.14963418E-05,
                       2.04429996E-09, -1.42970869E-13, -9.05851721E+03,
                      -5.89317378E+01])))

species(name=u'C6H11X(73)',
        atoms='H:11 C:6 X:1',
        thermo=(NASA([100.00, 1026.60],
                     [ 1.36763236E+00,  4.47159424E-02,  1.77339332E-05,
                      -4.72504607E-08,  1.90469768E-11, -6.50323463E+03,
                       5.40777780E+00]),
                NASA([1026.60, 5000.00],
                     [ 1.14239279E+01,  3.61439866E-02, -1.44679608E-05,
                       2.70636835E-09, -1.91760853E-13, -1.01810509E+04,
                      -5.12283432E+01])))

species(name=u'C4H5X(74)',
        atoms='H:5 C:4 X:1',
        thermo=(NASA([100.00, 936.52],
                     [ 2.68471723E+00,  1.36244496E-02,  5.32591849E-05,
                      -8.32912448E-08,  3.41499374E-11,  2.96824237E+03,
                      -1.06510487E+01]),
                NASA([936.52, 5000.00],
                     [ 1.29012266E+01,  8.96921861E-03, -1.71920076E-06,
                       2.89744517E-10, -2.58686364E-14, -6.54796577E+02,
                      -6.83963397E+01])))

species(name=u'C4H5X(81)',
        atoms='H:5 C:4 X:1',
        thermo=(NASA([100.00, 928.63],
                     [ 2.64232495E+00,  8.31109593E-03,  8.12146261E-05,
                      -1.21398701E-07,  4.98630759E-11,  8.15115112E+03,
                      -1.03932963E+01]),
                NASA([928.63, 5000.00],
                     [ 1.69490474E+01,  2.00818812E-03,  2.03468841E-06,
                      -4.02657023E-10,  1.85400094E-14,  3.10865675E+03,
                      -9.11990785E+01])))

species(name=u'C6H9X(98)',
        atoms='H:9 C:6 X:1',
        thermo=(NASA([100.00, 959.61],
                     [ 9.97316280E-01,  5.45668000E-02, -1.20062319E-05,
                      -2.57197904E-08,  1.47243152E-11,  1.01755110E+04,
                       4.10405037E+00]),
                NASA([959.61, 5000.00],
                     [ 1.47073597E+01,  2.48050721E-02, -8.29407345E-06,
                       1.44239761E-09, -1.00346470E-13,  6.28331060E+03,
                      -6.80438434E+01])))

species(name=u'SX(209)',
        atoms='H:11 C:6 X:1',
        thermo=(NASA([100.00, 996.76],
                     [ 1.22387093E+00,  4.65813911E-02,  1.88286839E-05,
                      -5.31476442E-08,  2.23784278E-11, -5.20928944E+03,
                       5.15231381E+00]),
                NASA([996.76, 5000.00],
                     [ 1.30217585E+01,  3.34007173E-02, -1.27486852E-05,
                       2.35864380E-09, -1.67706149E-13, -9.25839570E+03,
                      -6.02408109E+01])))

species(name=u'C6H9X(215)',
        atoms='H:9 C:6 X:1',
        thermo=(NASA([100.00, 973.86],
                     [ 9.93837756E-01,  5.22731950E-02, -2.04237505E-06,
                      -3.72834276E-08,  1.87182448E-11,  1.87307778E+03,
                       7.46169215E-01]),
                NASA([973.86, 5000.00],
                     [ 1.59749061E+01,  2.35119815E-02, -8.21905871E-06,
                       1.49896743E-09, -1.07947310E-13, -2.59885373E+03,
                      -7.91107508E+01])))

species(name=u'C4H7X(226)',
        atoms='H:7 C:4 X:1',
        thermo=(NASA([100.00, 947.75],
                     [ 2.86440387E+00,  8.12954614E-03,  7.59606536E-05,
                      -1.03618267E-07,  4.00694538E-11, -6.60469188E+03,
                      -2.40038485E+00]),
                NASA([947.75, 5000.00],
                     [ 1.10489656E+01,  1.63914163E-02, -4.86280875E-06,
                       8.89632629E-10, -6.85128174E-14, -1.00785081E+04,
                      -5.15890409E+01])))

species(name=u'SX(227)',
        atoms='H:11 C:6 X:1',
        thermo=(NASA([100.00, 1049.69],
                     [ 1.36930266E+00,  4.38979115E-02,  2.01275568E-05,
                      -4.90824503E-08,  1.92320209E-11, -5.86654382E+03,
                       5.21493675E+00]),
                NASA([1049.69, 5000.00],
                     [ 1.20673516E+01,  3.58058064E-02, -1.50008038E-05,
                       2.88254699E-09, -2.07040682E-13, -9.91256762E+03,
                      -5.54902255E+01])))

species(name=u'SX(229)',
        atoms='H:15 C:8 X:1',
        thermo=(NASA([100.00, 1005.13],
                     [-3.22055147E-01,  7.98124476E-02, -1.76103808E-05,
                      -2.96342396E-08,  1.61170749E-11, -1.20904109E+04,
                       1.43648918E+01]),
                NASA([1005.13, 5000.00],
                     [ 1.64299397E+01,  4.63990599E-02, -1.73701608E-05,
                       3.12011437E-09, -2.16101739E-13, -1.71377384E+04,
                      -7.48953353E+01])))

species(name=u'SX(230)',
        atoms='H:15 C:8 X:1',
        thermo=(NASA([100.00, 1076.39],
                     [-1.86490911E-01,  7.72527624E-02, -1.72237273E-05,
                      -2.37578162E-08,  1.20984635E-11, -1.33637917E+04,
                       1.46587334E+01]),
                NASA([1076.39, 5000.00],
                     [ 1.53299553E+01,  4.94178646E-02, -1.99983944E-05,
                       3.70330996E-09, -2.58488056E-13, -1.84320039E+04,
                      -6.93675291E+01])))

species(name=u'SX(261)',
        atoms='H:11 C:6 X:1',
        thermo=(NASA([100.00, 2550.55],
                     [ 1.24292200E+00,  6.01193450E-02, -3.21889901E-05,
                       7.64489414E-09, -6.96875236E-13, -6.58716488E+03,
                       2.83476651E+00]),
                NASA([2550.55, 5000.00],
                     [ 2.69737903E+01,  1.97651878E-02, -8.45594911E-06,
                       1.44140568E-09, -8.88104742E-14, -1.97125057E+04,
                      -1.45393387E+02])))

species(name=u'SX(263)',
        atoms='H:15 C:8 X:1',
        thermo=(NASA([100.00, 1054.94],
                     [-4.23392011E-01,  8.42083258E-02, -3.46408927E-05,
                      -8.61268939E-09,  7.83957456E-12, -1.24547187E+04,
                       1.40280955E+01]),
                NASA([1054.94, 5000.00],
                     [ 1.55236848E+01,  4.83318345E-02, -1.85923644E-05,
                       3.34052728E-09, -2.29164850E-13, -1.71876651E+04,
                      -7.02454510E+01])))

species(name=u'SX(264)',
        atoms='H:15 C:8 X:1',
        thermo=(NASA([100.00, 1178.49],
                     [-3.01653383E-01,  8.17123878E-02, -3.40048005E-05,
                      -3.74233550E-09,  4.54207414E-12, -1.37273658E+04,
                       1.43780836E+01]),
                NASA([1178.49, 5000.00],
                     [ 1.51737761E+01,  5.01773664E-02, -2.05846798E-05,
                       3.78035919E-09, -2.60079358E-13, -1.88325621E+04,
                      -6.90079980E+01])))

species(name=u'C6H9X(268)',
        atoms='H:9 C:6 X:1',
        thermo=(NASA([100.00, 973.86],
                     [ 9.93837756E-01,  5.22731950E-02, -2.04237505E-06,
                      -3.72834276E-08,  1.87182448E-11,  1.33060773E+03,
                       6.98148748E-01]),
                NASA([973.86, 5000.00],
                     [ 1.59749061E+01,  2.35119815E-02, -8.21905871E-06,
                       1.49896743E-09, -1.07947310E-13, -3.14132377E+03,
                      -7.91587712E+01])))

species(name=u'SX(269)',
        atoms='H:13 C:8 X:1',
        thermo=(NASA([100.00, 1043.52],
                     [-8.63095325E-02,  7.48224340E-02, -1.81205237E-05,
                      -2.49318244E-08,  1.34036013E-11, -4.32888907E+03,
                       1.16336503E+01]),
                NASA([1043.52, 5000.00],
                     [ 1.64637478E+01,  4.27259944E-02, -1.70374324E-05,
                       3.15942377E-09, -2.22032497E-13, -9.48946772E+03,
                      -7.70925677E+01])))

species(name=u'SX(270)',
        atoms='H:13 C:8 X:1',
        thermo=(NASA([100.00, 1008.57],
                     [-6.64038590E-02,  7.55951767E-02, -2.18359920E-05,
                      -2.22931333E-08,  1.32613496E-11,  2.62808985E+03,
                       1.32535994E+01]),
                NASA([1008.57, 5000.00],
                     [ 1.59395348E+01,  4.17915904E-02, -1.56970381E-05,
                       2.82243736E-09, -1.95508987E-13, -2.10989459E+03,
                      -7.15850407E+01])))

species(name=u'C6H9X(300)',
        atoms='H:9 C:6 X:1',
        thermo=(NASA([100.00, 995.64],
                     [ 1.00158150E+00,  5.37831764E-02, -1.05077719E-05,
                      -2.52898569E-08,  1.36194364E-11,  9.65301784E+03,
                       4.73928304E+00]),
                NASA([995.64, 5000.00],
                     [ 1.48279675E+01,  2.56881420E-02, -9.53965888E-06,
                       1.75504791E-09, -1.24935257E-13,  5.53909289E+03,
                      -6.87379050E+01])))

species(name=u'SX(306)',
        atoms='H:11 C:8 X:1',
        thermo=(NASA([100.00, 970.37],
                     [ 5.31641954E-02,  6.71977456E-02,  4.47858696E-06,
                      -5.81672079E-08,  2.81723287E-11,  9.41927551E+03,
                       9.58558746E+00]),
                NASA([970.37, 5000.00],
                     [ 2.04532936E+01,  2.99983151E-02, -1.05049814E-05,
                       1.92652148E-09, -1.39848135E-13,  3.25237747E+03,
                      -9.95955081E+01])))

species(name=u'SX(307)',
        atoms='H:11 C:8 X:1',
        thermo=(NASA([100.00, 978.48],
                     [-2.03188429E-01,  8.00305318E-02, -4.14445349E-05,
                      -6.30400358E-09,  9.29379676E-12,  1.61618800E+04,
                       9.78673632E+00]),
                NASA([978.48, 5000.00],
                     [ 1.79003688E+01,  3.33652582E-02, -1.18215595E-05,
                       2.07054526E-09, -1.42297664E-13,  1.13102146E+04,
                      -8.38469152E+01])))

species(name=u'C6H9X(319)',
        atoms='H:9 C:6 X:1',
        thermo=(NASA([100.00, 982.39],
                     [ 1.17199359E+00,  4.77160396E-02,  9.26098866E-06,
                      -4.64666332E-08,  2.11967020E-11,  1.93553932E+03,
                       1.23439845E+00]),
                NASA([982.39, 5000.00],
                     [ 1.50560256E+01,  2.55321029E-02, -9.31181137E-06,
                       1.72744250E-09, -1.24865395E-13, -2.44979726E+03,
                      -7.39370609E+01])))

species(name=u'SX(328)',
        atoms='H:11 C:8 X:1',
        thermo=(NASA([100.00, 971.40],
                     [ 1.41367486E-02,  6.90601635E-02, -2.81822772E-06,
                      -5.01495652E-08,  2.53088732E-11,  8.87980050E+03,
                       7.57445029E+00]),
                NASA([971.40, 5000.00],
                     [ 2.02696999E+01,  2.98290094E-02, -1.04553339E-05,
                       1.90870547E-09, -1.37813094E-13,  2.86027816E+03,
                      -1.00287409E+02])))

species(name=u'SX(385)',
        atoms='H:11 C:8 X:1',
        thermo=(NASA([100.00, 970.37],
                     [ 5.31641954E-02,  6.71977456E-02,  4.47858696E-06,
                      -5.81672079E-08,  2.81723287E-11,  9.41927551E+03,
                       9.58558746E+00]),
                NASA([970.37, 5000.00],
                     [ 2.04532936E+01,  2.99983151E-02, -1.05049814E-05,
                       1.92652148E-09, -1.39848135E-13,  3.25237747E+03,
                      -9.95955081E+01])))

species(name=u'SX(388)',
        atoms='H:11 C:8 X:1',
        thermo=(NASA([100.00, 962.24],
                     [-2.35925141E-02,  6.79468626E-02,  5.44319596E-06,
                      -6.22174223E-08,  3.04428701E-11,  9.99606187E+03,
                       7.63931649E+00]),
                NASA([962.24, 5000.00],
                     [ 2.16692086E+01,  2.75469289E-02, -9.17276980E-06,
                       1.66777351E-09, -1.22183122E-13,  3.51690003E+03,
                      -1.08155159E+02])))

species(name=u'C6H9X(533)',
        atoms='H:9 C:6 X:1',
        thermo=(NASA([100.00, 944.03],
                     [ 1.50274111E+00,  3.39062369E-02,  5.74106466E-05,
                      -1.03068261E-07,  4.32458954E-11, -3.04140819E+03,
                       6.35756273E+00]),
                NASA([944.03, 5000.00],
                     [ 1.71767347E+01,  2.05443400E-02, -5.65216664E-06,
                       9.93357808E-10, -7.58667896E-14, -8.36471873E+03,
                      -8.08781643E+01])))

species(name=u'C6H9X(534)',
        atoms='H:9 C:6 X:1',
        thermo=(NASA([100.00, 1255.20],
                     [ 1.52447209E+00,  4.66103126E-02, -6.16097139E-06,
                      -1.35483363E-08,  5.32040290E-12, -7.97427249E+02,
                       6.56680419E-01]),
                NASA([1255.20, 5000.00],
                     [ 9.78683421E+00,  3.78121855E-02, -1.65981390E-05,
                       3.12279672E-09, -2.16338075E-13, -4.25270572E+03,
                      -4.65839356E+01])))

species(name=u'C6H9X(535)',
        atoms='H:9 C:6 X:1',
        thermo=(NASA([100.00, 961.61],
                     [ 9.56162142E-01,  5.11594912E-02,  6.21920554E-06,
                      -4.93493283E-08,  2.38502949E-11,  2.98933672E+03,
                       8.10829424E-01]),
                NASA([961.61, 5000.00],
                     [ 1.73730683E+01,  2.12321143E-02, -6.93773963E-06,
                       1.25832417E-09, -9.23409490E-14, -1.94164143E+03,
                      -8.69708728E+01])))

species(name=u'SX(605)',
        atoms='H:13 C:8 X:1',
        thermo=(NASA([100.00, 1598.54],
                     [-2.79057711E-01,  8.59086141E-02, -5.82243288E-05,
                       2.02724841E-08, -2.90246587E-12,  2.58386565E+03,
                       1.16473044E+01]),
                NASA([1598.54, 5000.00],
                     [ 1.73707005E+01,  4.17437554E-02, -1.67818050E-05,
                       2.98893101E-09, -1.99434223E-13, -3.05888247E+03,
                      -8.17818494E+01])))

species(name=u'C6H9X(630)',
        atoms='H:9 C:6 X:1',
        thermo=(NASA([100.00, 961.61],
                     [ 9.56162142E-01,  5.11594912E-02,  6.21920554E-06,
                      -4.93493283E-08,  2.38502949E-11,  2.44686667E+03,
                       7.62808957E-01]),
                NASA([961.61, 5000.00],
                     [ 1.73730683E+01,  2.12321143E-02, -6.93773963E-06,
                       1.25832417E-09, -9.23409490E-14, -2.48411148E+03,
                      -8.70188932E+01])))

species(name=u'SX(654)',
        atoms='H:11 C:6 X:1',
        thermo=(NASA([100.00, 2179.95],
                     [ 1.88396133E+00,  5.43303876E-02, -2.43312950E-05,
                       3.91593164E-09, -1.13799029E-13, -7.91692012E+03,
                       1.45330847E+00]),
                NASA([2179.95, 5000.00],
                     [ 2.29310250E+01,  2.54338008E-02, -1.11380052E-05,
                       1.92715789E-09, -1.20358042E-13, -1.94034433E+04,
                      -1.21787406E+02])))

species(name=u'SX(664)',
        atoms='H:13 C:8 X:1',
        thermo=(NASA([100.00, 1052.18],
                     [-1.33130990E-01,  7.66586422E-02, -2.51765727E-05,
                      -1.73850375E-08,  1.07802848E-11, -4.71522041E+03,
                       9.67778075E+00]),
                NASA([1052.18, 5000.00],
                     [ 1.64398390E+01,  4.22156974E-02, -1.67916725E-05,
                       3.10093884E-09, -2.17033016E-13, -9.78376221E+03,
                      -7.86331211E+01])))

species(name=u'SX(684)',
        atoms='H:11 C:6 X:1',
        thermo=(NASA([100.00, 1021.29],
                     [ 1.34823251E+00,  4.49172343E-02,  1.76151869E-05,
                      -4.78984165E-08,  1.95062653E-11, -6.54755899E+03,
                       4.75789439E+00]),
                NASA([1021.29, 5000.00],
                     [ 1.18283961E+01,  3.51070812E-02, -1.38546841E-05,
                       2.59222616E-09, -1.84231983E-13, -1.03172518E+04,