units(length='cm', time='s', quantity='mol', act_energy='kcal/mol')

ideal_gas(name='gas',
          elements="H D T C Ci O Oi N Ne Ar He Si S Cl X",
          species="""n-heptane   Ar          He          Ne
                     N2          C2H4(2)     C4H8-1(3)   C4H8-2(4)
                     C4H6(7)     C3H6(32)    H2(68)      C4H6a(79)
                     C8H12(102)  C6H8(111)   C8H12(152)  S(181)
                     S(190)      S(191)      S(205)      S(216)
                     S(372)      S(438)      S(483)      S(580)
                     S(901)      S(986)      S(1038)     S(1071)
                     S(1073)     S(1074)     S(1158)     S(1244)
                     S(1330)     S(1350)     S(1389)     S(1432)
                     S(1489)     S(1556)     S(1588)     S(1617)
                     S(1672)     S(1833)     C2H6(1918)  S(2038)
                     C8H9(2104)  S(2378)     S(2381)     S(2712)
                     S(2717)     S(2890)     S(3288)     C5H8(3508)
                     S(3521)     S(3526)""",
          reactions='gas-*',
          transport='Mix',
          initial_state=state(temperature=300.0, pressure=OneAtm))

ideal_interface(name='surface1',
                elements="H D T C Ci O Oi N Ne Ar He Si S Cl X",
                species="""X(1)        HX(5)       C2H3X(37)   CH3X(39)
                          C2H5X(40)   C4H5X(80)   C4H5X(81)   C6H7X(141)
                          C6H7X(143)  SX(335)     SX(337)     SX(340)
                          SX(342)     SX(344)     SX(359)     SX(360)
                          SX(365)     SX(366)     SX(380)     SX(381)
                          SX(394)     SX(400)     SX(422)     SX(424)
                          SX(425)     SX(428)     SX(497)     SX(498)
                          SX(499)     SX(500)     SX(501)     SX(502)
                          SX(578)     SX(690)     SX(693)     SX(694)
                          SX(696)     SX(699)     SX(729)     SX(731)
                          SX(775)     SX(777)     SX(778)     SX(779)
                          SX(885)     SX(889)     SX(924)     SX(925)
                          SX(933)     SX(943)     SX(1002)    SX(1087)
                          SX(1088)    SX(1089)    SX(1091)    SX(1094)
                          SX(1095)    SX(1096)    SX(1097)    SX(1174)
                          SX(1175)    SX(1313)    SX(1382)    SX(1386)
                          SX(1439)    SX(1440)    SX(1459)    SX(1502)
                          SX(1504)    SX(1506)    SX(1507)    SX(1508)
                          SX(1582)    SX(1586)    SX(1677)    SX(1797)
                          SX(1798)    SX(1799)    SX(1802)    SX(1829)
                          SX(2033)    SX(2034)    SX(2046)    SX(2060)
                          SX(2072)    SX(2151)    SX(2152)    SX(2290)
                          SX(2294)    SX(2360)    SX(2434)    SX(2529)
                          SX(2533)    SX(2747)    SX(2748)    SX(2749)
                          SX(2883)    SX(2887)    SX(2990)    SX(3033)
                          SX(3034)    SX(3102)    SX(3139)    SX(3186)
                          SX(3187)    SX(3254)    SX(3255)    SX(3280)
                          SX(3281)    SX(3345)    SX(3467)    SX(3492)
                          SX(3715)    SX(3737)    SX(3738)    SX(3740)
                          SX(3928)    SX(3929)    SX(4024)    SX(4025)
                          SX(4171)    SX(4228)    SX(4232)    SX(4309)
                          SX(4310)    SX(4377)    SX(4420)    SX(4421)
                          SX(4496)    SX(4500)    SX(4591)    SX(4696)
                          SX(4699)    SX(4701)    SX(4725)    SX(4824)
                          SX(4825)    SX(4830)    SX(4832)    SX(4834)
                          SX(4853)    SX(4858)""",
                site_density=2.72e-09,
                phases="gas",
          reactions='surface1-*',
                initial_state=state(temperature=300.0, pressure=OneAtm))

#-------------------------------------------------------------------------------
# Element data
#-------------------------------------------------------------------------------

element(symbol=u'X', atomic_mass=195.083)
element(symbol=u'Ci', atomic_mass=13.003)
element(symbol=u'D', atomic_mass=2.014)
element(symbol=u'Oi', atomic_mass=18.0)
element(symbol=u'T', atomic_mass=3.016)
#-------------------------------------------------------------------------------
# Species data
#-------------------------------------------------------------------------------

species(name=u'n-heptane',
        atoms='H:16 C:7',
        thermo=(NASA([100.00, 1262.73],
                     [-2.91681405E-03,  7.69373649E-02, -3.48025563E-05,
                       1.86095180E-09,  2.01573617E-12, -2.57829342E+04,
                       3.00312148E+01]),
                NASA([1262.73, 5000.00],
                     [ 1.38377915E+01,  4.85945016E-02, -1.95474548E-05,
                       3.52837178E-09, -2.39064676E-13, -3.05141556E+04,
                      -4.48642836E+01])),
        transport=gas_transport(geom='nonlinear',
                                diam=6.366,
                                well_depth=402.997))

species(name=u'Ar',
        atoms='Ar:1',
        thermo=(NASA([200.00, 1000.00],
                     [ 2.50000000E+00,  0.00000000E+00,  0.00000000E+00,
                       0.00000000E+00,  0.00000000E+00, -7.45375000E+02,
                       4.37967000E+00]),
                NASA([1000.00, 6000.00],
                     [ 2.50000000E+00,  0.00000000E+00,  0.00000000E+00,
                       0.00000000E+00,  0.00000000E+00, -7.45375000E+02,
                       4.37967000E+00])),
        transport=gas_transport(geom='atom',
                                diam=3.33,
                                well_depth=136.5))

species(name=u'He',
        atoms='He:1',
        thermo=(NASA([200.00, 1000.00],
                     [ 2.50000000E+00,  0.00000000E+00,  0.00000000E+00,
                       0.00000000E+00,  0.00000000E+00, -7.45375000E+02,
                       9.28724000E-01]),
                NASA([1000.00, 6000.00],
                     [ 2.50000000E+00,  0.00000000E+00,  0.00000000E+00,
                       0.00000000E+00,  0.00000000E+00, -7.45375000E+02,
                       9.28724000E-01])),
        transport=gas_transport(geom='atom',
                                diam=2.576,
                                well_depth=10.2))

species(name=u'Ne',
        atoms='Ne:1',
        thermo=(NASA([200.00, 1000.00],
                     [ 2.50000000E+00,  0.00000000E+00,  0.00000000E+00,
                       0.00000000E+00,  0.00000000E+00, -7.45375000E+02,
                       3.35532000E+00]),
                NASA([1000.00, 6000.00],
                     [ 2.50000000E+00,  0.00000000E+00,  0.00000000E+00,
                       0.00000000E+00,  0.00000000E+00, -7.45375000E+02,
                       3.35532000E+00])),
        transport=gas_transport(geom='atom',
                                diam=3.758,
                                well_depth=148.6))

species(name=u'N2',
        atoms='N:2',
        thermo=(NASA([200.00, 1000.00],
                     [ 3.53101000E+00, -1.23661000E-04, -5.02999000E-07,
                       2.43531000E-09, -1.40881000E-12, -1.04698000E+03,
                       2.96747000E+00]),
                NASA([1000.00, 6000.00],
                     [ 2.95258000E+00,  1.39690000E-03, -4.92632000E-07,
                       7.86010000E-11, -4.60755000E-15, -9.23949000E+02,
                       5.87189000E+00])),
        transport=gas_transport(geom='linear',
                                diam=3.621,
                                well_depth=97.53,
                                polar=1.76,
                                rot_relax=4.0))

species(name=u'C2H4(2)',
        atoms='H:4 C:2',
        thermo=(NASA([100.00, 979.36],
                     [ 3.97471606E+00, -4.75844285E-03,  4.16783770E-05,
                      -4.51392516E-08,  1.54224761E-11,  4.91540746E+03,
                       3.62430844E+00]),
                NASA([979.36, 5000.00],
                     [ 3.55660610E+00,  1.10627464E-02, -4.17019079E-06,
                       7.85586770E-10, -5.70060829E-14,  4.32046489E+03,
                       2.17719479E+00])),
        transport=gas_transport(geom='nonlinear',
                                diam=3.971,
                                well_depth=280.8,
                                rot_relax=1.5))

species(name=u'C4H8-1(3)',
        atoms='H:8 C:4',
        thermo=(NASA([100.00, 1007.28],
                     [ 2.58772906E+00,  2.32777969E-02,  1.93412349E-05,
                      -3.55496333E-08,  1.36906009E-11, -1.91872926E+03,
                       1.45750618E+01]),
                NASA([1007.28, 5000.00],
                     [ 7.20517168E+00,  2.36361568E-02, -9.03150028E-06,
                       1.65392666E-09, -1.16019260E-13, -3.79733937E+03,
                      -1.24426257E+01])),
        transport=gas_transport(geom='nonlinear',
                                diam=5.176,
                                well_depth=357.002,
                                rot_relax=1.0))

species(name=u'C4H8-2(4)',
        atoms='H:8 C:4',
        thermo=(NASA([100.00, 1157.79],
                     [ 2.51998327E+00,  2.76812799E-02,  9.43783469E-07,
                      -1.25009101E-08,  4.67144666E-12, -3.34374767E+03,
                       1.30195623E+01]),
                NASA([1157.79, 5000.00],
                     [ 6.04225708E+00,  2.60072350E-02, -1.04843374E-05,
                       1.90880922E-09, -1.30600505E-13, -4.86276511E+03,
                      -7.52715109E+00])),
        transport=gas_transport(geom='nonlinear',
                                diam=5.289,
                                well_depth=359.053))

species(name=u'C4H6(7)',
        atoms='H:6 C:4',
        thermo=(NASA([100.00, 946.05],
                     [ 2.80599310E+00,  1.02584471E-02,  6.17260255E-05,
                      -9.01642687E-08,  3.59116961E-11,  1.16584972E+04,
                       1.20621434E+01]),
                NASA([946.05, 5000.00],
                     [ 1.24693720E+01,  1.00553901E-02, -2.41206872E-06,
                       4.57077303E-10, -3.93160571E-14,  8.01077795E+03,
                      -4.36374720E+01])),
        transport=gas_transport(geom='nonlinear',
                                diam=5.18,
                                well_depth=357.002,
                                rot_relax=1.0))

species(name=u'C3H6(32)',
        atoms='H:6 C:3',
        thermo=(NASA([100.00, 983.75],
                     [ 3.31912102E+00,  8.17958674E-03,  3.34736123E-05,
                      -4.36193684E-08,  1.58213364E-11,  7.49325328E+02,
                       9.54025058E+00]),
                NASA([983.75, 5000.00],
                     [ 5.36755173E+00,  1.70743019E-02, -6.35107626E-06,
                       1.16619529E-09, -8.27620279E-14, -4.87138326E+02,
                      -4.54467529E+00])),
        transport=gas_transport(geom='nonlinear',
                                diam=4.982,
                                well_depth=266.801,
                                rot_relax=1.0))

species(name=u'H2(68)',
        atoms='H:2',
        thermo=(NASA([100.00, 1959.08],
                     [ 3.43536412E+00,  2.12710353E-04, -2.78625043E-07,
                       3.40267167E-10, -7.76031998E-14, -1.03135984E+03,
                      -3.90841732E+00]),
                NASA([1959.08, 5000.00],
                     [ 2.78816583E+00,  5.87640942E-04,  1.59010417E-07,
                      -5.52739026E-11,  4.34310984E-15, -5.96144270E+02,
                       1.12732655E-01])),
        transport=gas_transport(geom='linear',
                                diam=2.833,
                                well_depth=59.7))

species(name=u'C4H6a(79)',
        atoms='H:6 C:4',
        thermo=(NASA([100.00, 950.38],
                     [ 3.41327601E+00, -4.60830638E-03,  9.57205603E-05,
                      -1.18800574E-07,  4.44495312E-11,  1.74039828E+04,
                       1.01517556E+01]),
                NASA([950.38, 5000.00],
                     [ 9.72156091E+00,  1.36879055E-02, -3.93842260E-06,
                       7.58710118E-10, -6.16013131E-14,  1.41795804E+04,
                      -3.06164436E+01])),
        transport=gas_transport(geom='nonlinear',
                                diam=5.503,
                                well_depth=381.31))

species(name=u'C8H12(102)',
        atoms='H:12 C:8',
        thermo=(NASA([100.00, 973.99],
                     [ 1.29290720E+00,  3.40987620E-02,  8.83250757E-05,
                      -1.34013150E-07,  5.20549907E-11,  6.25186440E+03,
                       2.49510784E+01]),
                NASA([973.99, 5000.00],
                     [ 1.61828450E+01,  3.65065469E-02, -1.32663093E-05,
                       2.52136923E-09, -1.87069022E-13,  3.36603553E+02,
                      -6.19680596E+01])),
        transport=gas_transport(geom='nonlinear',
                                diam=6.672,
                                well_depth=466.433))

species(name=u'C6H8(111)',
        atoms='H:8 C:6',
        thermo=(NASA([100.00, 972.94],
                     [ 1.82686070E+00,  3.47046353E-02,  2.41070171E-05,
                      -5.44847920E-08,  2.29388832E-11,  1.99100661E+04,
                       1.81393315E+01]),
                NASA([972.94, 5000.00],
                     [ 1.21686202E+01,  2.40472785E-02, -8.58151834E-06,
                       1.57034031E-09, -1.12795334E-13,  1.63897115E+04,
                      -3.92195169E+01])),
        transport=gas_transport(geom='nonlinear',
                                diam=5.466,
                                well_depth=388.421))

species(name=u'C8H12(152)',
        atoms='H:12 C:8',
        thermo=(NASA([100.00, 965.06],
                     [ 9.10978979E-01,  4.23802471E-02,  7.29113784E-05,
                      -1.24343717E-07,  5.02920260E-11,  3.61469848E+03,
                       2.37268375E+01]),
                NASA([965.06, 5000.00],
                     [ 1.85292040E+01,  3.29565771E-02, -1.12960283E-05,
                       2.11593972E-09, -1.57766553E-13, -2.74753758E+03,
                      -7.59889729E+01])),
        transport=gas_transport(geom='nonlinear',
                                diam=6.758,
                                well_depth=475.496))

species(name=u'S(181)',
        atoms='H:14 C:10',
        thermo=(NASA([100.00, 1003.26],
                     [-1.03984048E+00,  9.30824641E-02, -3.27200043E-05,
                      -2.43703234E-08,  1.61253460E-11,  3.76511179E+04,
                       3.93183848E+01]),
                NASA([1003.26, 5000.00],
                     [ 2.09856416E+01,  4.37157160E-02, -1.63963376E-05,
                       2.98188082E-09, -2.09257609E-13,  3.12966573E+04,
                      -7.66570910E+01])),
        transport=gas_transport(geom='nonlinear',
                                diam=6.865,
                                well_depth=476.647))

species(name=u'S(190)',
        atoms='H:14 C:10',
        thermo=(NASA([100.00, 968.43],
                     [-1.78657670E-01,  6.27636610E-02,  6.13275679E-05,
                      -1.25568699E-07,  5.26247225E-11,  1.23467547E+04,
                       3.16624716E+01]),
                NASA([968.43, 5000.00],
                     [ 2.28001036E+01,  3.95488872E-02, -1.37666755E-05,
                       2.57450736E-09, -1.90686366E-13,  4.53405575E+03,
                      -9.58178615E+01])),
        transport=gas_transport(geom='nonlinear',
                                diam=7.071,
                                well_depth=504.125))

species(name=u'S(191)',
        atoms='H:14 C:10',
        thermo=(NASA([100.00, 996.97],
                     [-2.31041028E-02,  6.10027193E-02,  5.86050814E-05,
                      -1.14664509E-07,  4.61676159E-11,  1.47392063E+04,
                       3.19070927E+01]),
                NASA([996.97, 5000.00],
                     [ 2.05248122E+01,  4.51728960E-02, -1.77983883E-05,
                       3.44207438E-09, -2.53592253E-13,  7.33162081E+03,
                      -8.37648853E+01])),
        transport=gas_transport(geom='nonlinear',
                                diam=7.229,
                                well_depth=506.666))

species(name=u'S(205)',
        atoms='H:16 C:12',
        thermo=(NASA([100.00, 980.77],
                     [-2.21845665E+00,  1.15202302E-01, -4.46058253E-05,
                      -2.89292454E-08,  2.08193354E-11,  3.97133228E+04,
                       4.48687920E+01]),
                NASA([980.77, 5000.00],
                     [ 2.59409200E+01,  4.89148103E-02, -1.74910345E-05,
                       3.12129948E-09, -2.18247198E-13,  3.18543069E+04,
                      -1.02343316E+02])),
        transport=gas_transport(geom='nonlinear',
                                diam=7.303,
                                well_depth=512.085))

species(name=u'S(216)',
        atoms='H:16 C:12',
        thermo=(NASA([100.00, 989.29],
                     [-1.49871027E+00,  8.97231513E-02,  3.13728211E-05,
                      -1.05849951E-07,  4.65472901E-11,  2.08342656E+04,
                       3.86324941E+01]),
                NASA([989.29, 5000.00],
                     [ 2.71231573E+01,  4.82447418E-02, -1.83146882E-05,
                       3.49879125E-09, -2.57494969E-13,  1.15378770E+04,
                      -1.17506583E+02])),
        transport=gas_transport(geom='nonlinear',
                                diam=7.622,
                                well_depth=543.084))

species(name=u'S(372)',
        atoms='H:16 C:12',
        thermo=(NASA([100.00, 990.94],
                     [-1.53673879E+00,  9.50296733E-02,  8.13325447E-06,
                      -7.82185025E-08,  3.63989841E-11,  2.10168816E+04,
                       3.81765950E+01]),
                NASA([990.94, 5000.00],
                     [ 2.49483558E+01,  5.05143791E-02, -1.89287732E-05,
                       3.52660923E-09, -2.53947844E-13,  1.27044184E+04,
                      -1.04814787E+02])),
        transport=gas_transport(geom='nonlinear',
                                diam=7.38,
                                well_depth=532.161))

species(name=u'S(438)',
        atoms='H:13 C:10',
        thermo=(NASA([100.00, 1000.73],
                     [ 9.24555464E-02,  5.97355855E-02,  5.78871300E-05,
                      -1.10867485E-07,  4.41580299E-11,  2.45217629E+04,
                       2.85420964E+01]),
                NASA([1000.73, 5000.00],
                     [ 1.89949310E+01,  4.75913310E-02, -1.89555491E-05,
                       3.64083741E-09, -2.65833917E-13,  1.75633333E+04,
                      -7.85294588E+01])),
        transport=gas_transport(geom='nonlinear',
                                diam=7.1,
                                well_depth=509.209))

species(name=u'S(483)',
        atoms='H:14 C:10',
        thermo=(NASA([100.00, 1026.38],
                     [-2.04485560E-01,  6.87984832E-02,  3.42640846E-05,
                      -8.47374871E-08,  3.42039564E-11,  1.03310869E+04,
                       2.80524687E+01]),
                NASA([1026.38, 5000.00],
                     [ 1.86284987E+01,  5.10531563E-02, -2.11321735E-05,
                       4.07064082E-09, -2.94617581E-13,  3.53386199E+03,
                      -7.75757937E+01])),
        transport=gas_transport(geom='nonlinear',
                                diam=7.1,
                                well_depth=509.209))

species(name=u'S(580)',
        atoms='H:16 C:12',
        thermo=(NASA([100.00, 982.76],
                     [-1.03808602E+00,  8.05740827E-02,  4.80027674E-05,
                      -1.17435606E-07,  4.97232474E-11,  2.09024065E+04,
                       3.77852686E+01]),
                NASA([982.76, 5000.00],
                     [ 2.39648304E+01,  5.16928884E-02, -1.91607213E-05,
                       3.59003721E-09, -2.61019934E-13,  1.24683578E+04,
                      -1.00311637E+02])),
        transport=gas_transport(geom='nonlinear',
                                diam=7.505,
                                well_depth=538.979))

species(name=u'S(901)',
        atoms='H:14 C:10',
        thermo=(NASA([100.00, 1055.81],
                     [-3.54017477E-01,  7.84287704E-02, -6.80308534E-06,
                      -3.81808354E-08,  1.75614230E-11,  1.48609857E+04,
                       2.94273079E+01]),
                NASA([1055.81, 5000.00],
                     [ 1.66306406E+01,  5.11587625E-02, -2.07367411E-05,
                       3.87868245E-09, -2.73480890E-13,  9.20790612E+03,
                      -6.32229088E+01])),
        transport=gas_transport(geom='nonlinear',
                                diam=6.986,
                                well_depth=495.312))

species(name=u'S(986)',
        atoms='H:14 C:10',
        thermo=(NASA([100.00, 974.14],
                     [-4.98430854E-01,  7.37939716E-02,  2.71851067E-05,
                      -8.95987019E-08,  3.98718484E-11,  9.43089456E+03,
                       3.12086110E+01]),
                NASA([974.14, 5000.00],
                     [ 2.24683141E+01,  4.00995513E-02, -1.42625815E-05,
                       2.63940716E-09, -1.92019869E-13,  2.08049504E+03,
                      -9.37518546E+01])),
        transport=gas_transport(geom='nonlinear',
                                diam=7.141,
                                well_depth=512.848))

species(name=u'S(1038)',
        atoms='H:13 C:10',
        thermo=(NASA([100.00, 986.38],
                     [-1.54493551E-05,  6.58256267E-02,  3.11002907E-05,
                      -8.35076671E-08,  3.55086836E-11,  1.81700564E+04,
                       3.24482933E+01]),
                NASA([986.38, 5000.00],
                     [ 1.83909399E+01,  4.41789029E-02, -1.64765093E-05,
                       3.05235475E-09, -2.18908318E-13,  1.19669088E+04,
                      -6.90782445E+01])),
        transport=gas_transport(geom='nonlinear',
                                diam=7.169,
                                well_depth=517.887))

species(name=u'S(1071)',
        atoms='H:12 C:9',
        thermo=(NASA([100.00, 971.20],
                     [ 1.68807066E-01,  6.17067903E-02,  3.03543180E-05,
                      -8.49578920E-08,  3.72253564E-11,  1.21282131E+04,
                       2.59012892E+01]),
                NASA([971.20, 5000.00],
                     [ 2.00822336E+01,  3.44451463E-02, -1.21077730E-05,
                       2.23991357E-09, -1.63553620E-13,  5.67795931E+03,
                      -8.28818167E+01])),
        transport=gas_transport(geom='nonlinear',
                                diam=6.833,
                                well_depth=497.321))

species(name=u'S(1073)',
        atoms='H:14 C:10',
        thermo=(NASA([100.00, 1020.53],
                     [-3.97088667E-01,  7.75162211E-02,  6.84060276E-07,
                      -5.05020494E-08,  2.30977837E-11,  1.21827946E+04,
                       3.09001989E+01]),
                NASA([1020.53, 5000.00],
                     [ 1.81749563E+01,  4.77343168E-02, -1.87621936E-05,
                       3.50079189E-09, -2.48591460E-13,  6.15234931E+03,
                      -7.00502669E+01])),
        transport=gas_transport(geom='nonlinear',
                                diam=7.056,
                                well_depth=504.105))

species(name=u'S(1074)',
        atoms='H:14 C:10',
        thermo=(NASA([100.00, 993.52],
                     [ 2.15843276E-01,  5.91483958E-02,  5.29942731E-05,
                      -1.03518063E-07,  4.15245382E-11,  1.26312914E+04,
                       3.01350656E+01]),
                NASA([993.52, 5000.00],
                     [ 1.73970636E+01,  4.82362593E-02, -1.84929210E-05,
                       3.47527858E-09, -2.50708945E-13,  6.34191811E+03,
                      -6.71135018E+01])),
        transport=gas_transport(geom='nonlinear',
                                diam=7.056,
                                well_depth=504.105))

species(name=u'S(1158)',
        atoms='H:12 C:9',
        thermo=(NASA([100.00, 1022.93],
                     [ 2.72267371E-01,  6.54049296E-02,  3.93224789E-06,
                      -4.59533867E-08,  2.04849727E-11,  1.48800217E+04,
                       2.55852346E+01]),
                NASA([1022.93, 5000.00],
                     [ 1.57740760E+01,  4.21046677E-02, -1.66214930E-05,
                       3.10460185E-09, -2.20397412E-13,  9.75616541E+03,
                      -5.90966563E+01])),
        transport=gas_transport(geom='nonlinear',
                                diam=6.748,
                                well_depth=488.438))

species(name=u'S(1244)',
        atoms='H:12 C:9',
        thermo=(NASA([100.00, 981.00],
                     [ 9.48507256E-01,  4.33446535E-02,  7.04359196E-05,
                      -1.16293207E-07,  4.56985558E-11,  1.54649135E+04,
                       2.52602218E+01]),
                NASA([981.00, 5000.00],
                     [ 1.60153504E+01,  4.06074402E-02, -1.51306127E-05,
                       2.84976111E-09, -2.07934103E-13,  9.68440838E+03,
                      -6.15350664E+01])),
        transport=gas_transport(geom='nonlinear',
                                diam=6.748,
                                well_depth=488.438))

species(name=u'S(1330)',
        atoms='H:13 C:10',
        thermo=(NASA([100.00, 1637.26],
                     [ 2.87179558E-02,  8.19008576E-02, -3.78215733E-05,
                       3.53593735E-09,  8.99568467E-13,  1.18083830E+04,
                       2.72174820E+01]),
                NASA([1637.26, 5000.00],
                     [ 2.29591379E+01,  4.50551879E-02, -2.16330004E-05,
                       4.09765539E-09, -2.78490076E-13,  1.72961556E+03,
                      -1.02562734E+02])),
        transport=gas_transport(geom='nonlinear',
                                diam=5.949,
                                well_depth=399.3))

species(name=u'S(1350)',
        atoms='H:11 C:9',
        thermo=(NASA([100.00, 984.31],
                     [ 6.68034841E-01,  5.37298117E-02,  3.42943822E-05,
                      -7.88896963E-08,  3.28670173E-11,  2.08673394E+04,
                       2.71380034E+01]),
                NASA([984.31, 5000.00],
                     [ 1.59959777E+01,  3.85392064E-02, -1.43300221E-05,
                       2.65479923E-09, -1.90601107E-13,  1.55682331E+04,
                      -5.81579618E+01])),
        transport=gas_transport(geom='nonlinear',
                                diam=6.861,
                                well_depth=502.453))

species(name=u'S(1389)',
        atoms='H:14 C:10',
        thermo=(NASA([100.00, 1015.96],
                     [-3.04208179E-01,  7.49867461E-02,  7.06992940E-06,
                      -5.67495468E-08,  2.52395255E-11,  3.97968286E+03,
                       3.19838748E+01]),
                NASA([1015.96, 5000.00],
                     [ 1.79904052E+01,  4.76930761E-02, -1.86810396E-05,
                       3.48836134E-09, -2.48182511E-13, -2.04637536E+03,
                      -6.79290595E+01])),
        transport=gas_transport(geom='nonlinear',
                                diam=7.169,
                                well_depth=517.887))

species(name=u'S(1432)',
        atoms='H:10 C:8',
        thermo=(NASA([100.00, 988.56],
                     [ 1.33139642E+00,  3.89704237E-02,  5.19800017E-05,
                      -9.06930860E-08,  3.58877705E-11,  1.07366213E+03,
                       2.25749893E+01]),
                NASA([988.56, 5000.00],
                     [ 1.47032075E+01,  3.32325480E-02, -1.27057564E-05,
                       2.42416390E-09, -1.77731363E-13, -3.93350404E+03,
                      -5.37361626E+01])),
        transport=gas_transport(geom='nonlinear',
                                diam=5.949,
                                well_depth=399.3))

species(name=u'S(1489)',
        atoms='H:12 C:9',
        thermo=(NASA([100.00, 1017.58],
                     [ 3.65169601E-01,  6.28754435E-02,  1.03169049E-05,
                      -5.21973279E-08,  2.26242597E-11,  6.67690874E+03,
                       2.66688171E+01]),
                NASA([1017.58, 5000.00],
                     [ 1.55880236E+01,  4.20658362E-02, -1.65416703E-05,
                       3.09247589E-09, -2.20013118E-13,  1.55811948E+03,
                      -5.69669056E+01])),
        transport=gas_transport(geom='nonlinear',
                                diam=6.861,
                                well_depth=502.453))

species(name=u'S(1556)',
        atoms='H:11 C:9',
        thermo=(NASA([100.00, 1602.33],
                     [ 9.30377533E-01,  6.50576200E-02, -2.25974745E-05,
                      -3.24285802E-09,  2.09566153E-12,  1.46117138E+04,
                       2.17813212E+01]),
                NASA([1602.33, 5000.00],
                     [ 1.81035674E+01,  4.26349935E-02, -2.07489363E-05,
                       3.95234205E-09, -2.69570505E-13,  6.48333634E+03,
                      -7.73569104E+01])),
        transport=gas_transport(geom='nonlinear',
                                diam=5.949,
                                well_depth=399.3))

species(name=u'S(1588)',
        atoms='H:14 C:10',
        thermo=(NASA([100.00, 1050.56],
                     [-2.60889849E-01,  7.48987323E-02,  2.18853410E-06,
                      -4.80327076E-08,  2.10296141E-11, -6.15139166E+03,
                       3.13429015E+01]),
                NASA([1050.56, 5000.00],
                     [ 1.74393401E+01,  4.90551394E-02, -2.02369072E-05,