units(length='cm', time='s', quantity='mol', act_energy='kcal/mol')

ideal_gas(name='gas',
          elements="H D T C Ci O Oi N Ne Ar He Si S Cl X",
          species="""n-heptane   Ar          He          Ne
                     N2          C2H4(2)     C4H8-1(3)   C4H8-2(4)
                     C4H6(7)     C3H6(32)    H2(68)      C8H12(102)
                     C6H8(119)   S(190)      S(205)      S(216)
                     S(385)      S(572)      S(593)      S(789)
                     S(928)      S(1099)     S(1411)     S(1615)""",
          reactions='gas-*',
          initial_state=state(temperature=300.0, pressure=OneAtm))

ideal_interface(name='surface1',
                elements="H D T C Ci O Oi N Ne Ar He Si S Cl X",
                species="""X(1)        HX(5)       C2H3X(37)   allylX(38)
                          C3H5X(45)   C4H5X(80)   C4H5X(81)   C6H7X(141)
                          C6H7X(142)  C6H7X(143)  SX(335)     SX(337)
                          SX(338)     SX(340)     SX(341)     SX(342)
                          SX(343)     SX(344)     SX(372)     SX(373)
                          SX(378)     SX(379)     SX(382)     SX(393)
                          SX(394)     C7H9X(397)  SX(407)     SX(413)
                          SX(436)     SX(437)     SX(501)     SX(502)
                          SX(503)     SX(504)     SX(505)     SX(506)
                          SX(535)     SX(567)     SX(568)     SX(591)
                          SX(704)     SX(706)     SX(707)     SX(708)
                          SX(709)     SX(710)     SX(711)     SX(782)
                          SX(854)     SX(857)     SX(858)     SX(859)
                          SX(860)     SX(920)     SX(925)     SX(934)
                          SX(1003)    SX(1005)    SX(1007)    SX(1008)
                          SX(1009)    SX(1010)    SX(1039)    SX(1094)
                          SX(1198)    SX(1199)    SX(1200)    SX(1373)
                          SX(1388)    SX(1404)    SX(1425)    SX(1484)
                          SX(1643)    SX(1796)    SX(1798)    SX(1799)
                          SX(1800)    SX(1803)    SX(1804)    SX(1805)
                          SX(1846)    SX(1848)    SX(1897)    SX(1899)
                          SX(1900)    SX(1901)""",
                site_density=2.72e-09,
                phases="gas",
          reactions='surface1-*',
                initial_state=state(temperature=300.0, pressure=OneAtm))

#-------------------------------------------------------------------------------
# Element data
#-------------------------------------------------------------------------------

element(symbol=u'X', atomic_mass=195.083)
element(symbol=u'Ci', atomic_mass=13.003)
element(symbol=u'D', atomic_mass=2.014)
element(symbol=u'Oi', atomic_mass=18.0)
element(symbol=u'T', atomic_mass=3.016)
#-------------------------------------------------------------------------------
# Species data
#-------------------------------------------------------------------------------

species(name=u'n-heptane',
        atoms='H:16 C:7',
        thermo=(NASA([100.00, 1262.73],
                     [-2.91681405E-03,  7.69373649E-02, -3.48025563E-05,
                       1.86095180E-09,  2.01573617E-12, -2.57829342E+04,
                       3.00312148E+01]),
                NASA([1262.73, 5000.00],
                     [ 1.38377915E+01,  4.85945016E-02, -1.95474548E-05,
                       3.52837178E-09, -2.39064676E-13, -3.05141556E+04,
                      -4.48642836E+01])))

species(name=u'Ar',
        atoms='Ar:1',
        thermo=(NASA([200.00, 1000.00],
                     [ 2.50000000E+00,  0.00000000E+00,  0.00000000E+00,
                       0.00000000E+00,  0.00000000E+00, -7.45375000E+02,
                       4.37967000E+00]),
                NASA([1000.00, 6000.00],
                     [ 2.50000000E+00,  0.00000000E+00,  0.00000000E+00,
                       0.00000000E+00,  0.00000000E+00, -7.45375000E+02,
                       4.37967000E+00])))

species(name=u'He',
        atoms='He:1',
        thermo=(NASA([200.00, 1000.00],
                     [ 2.50000000E+00,  0.00000000E+00,  0.00000000E+00,
                       0.00000000E+00,  0.00000000E+00, -7.45375000E+02,
                       9.28724000E-01]),
                NASA([1000.00, 6000.00],
                     [ 2.50000000E+00,  0.00000000E+00,  0.00000000E+00,
                       0.00000000E+00,  0.00000000E+00, -7.45375000E+02,
                       9.28724000E-01])))

species(name=u'Ne',
        atoms='Ne:1',
        thermo=(NASA([200.00, 1000.00],
                     [ 2.50000000E+00,  0.00000000E+00,  0.00000000E+00,
                       0.00000000E+00,  0.00000000E+00, -7.45375000E+02,
                       3.35532000E+00]),
                NASA([1000.00, 6000.00],
                     [ 2.50000000E+00,  0.00000000E+00,  0.00000000E+00,
                       0.00000000E+00,  0.00000000E+00, -7.45375000E+02,
                       3.35532000E+00])))

species(name=u'N2',
        atoms='N:2',
        thermo=(NASA([200.00, 1000.00],
                     [ 3.53101000E+00, -1.23661000E-04, -5.02999000E-07,
                       2.43531000E-09, -1.40881000E-12, -1.04698000E+03,
                       2.96747000E+00]),
                NASA([1000.00, 6000.00],
                     [ 2.95258000E+00,  1.39690000E-03, -4.92632000E-07,
                       7.86010000E-11, -4.60755000E-15, -9.23949000E+02,
                       5.87189000E+00])))

species(name=u'C2H4(2)',
        atoms='H:4 C:2',
        thermo=(NASA([100.00, 979.36],
                     [ 3.97471606E+00, -4.75844285E-03,  4.16783770E-05,
                      -4.51392516E-08,  1.54224761E-11,  4.91540746E+03,
                       3.62430844E+00]),
                NASA([979.36, 5000.00],
                     [ 3.55660610E+00,  1.10627464E-02, -4.17019079E-06,
                       7.85586770E-10, -5.70060829E-14,  4.32046489E+03,
                       2.17719479E+00])))

species(name=u'C4H8-1(3)',
        atoms='H:8 C:4',
        thermo=(NASA([100.00, 1007.28],
                     [ 2.58772906E+00,  2.32777969E-02,  1.93412349E-05,
                      -3.55496333E-08,  1.36906009E-11, -1.91872926E+03,
                       1.45750618E+01]),
                NASA([1007.28, 5000.00],
                     [ 7.20517168E+00,  2.36361568E-02, -9.03150028E-06,
                       1.65392666E-09, -1.16019260E-13, -3.79733937E+03,
                      -1.24426257E+01])))

species(name=u'C4H8-2(4)',
        atoms='H:8 C:4',
        thermo=(NASA([100.00, 1157.79],
                     [ 2.51998327E+00,  2.76812799E-02,  9.43783469E-07,
                      -1.25009101E-08,  4.67144666E-12, -3.34374767E+03,
                       1.30195623E+01]),
                NASA([1157.79, 5000.00],
                     [ 6.04225708E+00,  2.60072350E-02, -1.04843374E-05,
                       1.90880922E-09, -1.30600505E-13, -4.86276511E+03,
                      -7.52715109E+00])))

species(name=u'C4H6(7)',
        atoms='H:6 C:4',
        thermo=(NASA([100.00, 946.05],
                     [ 2.80599310E+00,  1.02584471E-02,  6.17260255E-05,
                      -9.01642687E-08,  3.59116961E-11,  1.16584972E+04,
                       1.20621434E+01]),
                NASA([946.05, 5000.00],
                     [ 1.24693720E+01,  1.00553901E-02, -2.41206872E-06,
                       4.57077303E-10, -3.93160571E-14,  8.01077795E+03,
                      -4.36374720E+01])))

species(name=u'C3H6(32)',
        atoms='H:6 C:3',
        thermo=(NASA([100.00, 983.75],
                     [ 3.31912102E+00,  8.17958674E-03,  3.34736123E-05,
                      -4.36193684E-08,  1.58213364E-11,  7.49325328E+02,
                       9.54025058E+00]),
                NASA([983.75, 5000.00],
                     [ 5.36755173E+00,  1.70743019E-02, -6.35107626E-06,
                       1.16619529E-09, -8.27620279E-14, -4.87138326E+02,
                      -4.54467529E+00])))

species(name=u'H2(68)',
        atoms='H:2',
        thermo=(NASA([100.00, 1959.08],
                     [ 3.43536412E+00,  2.12710353E-04, -2.78625043E-07,
                       3.40267167E-10, -7.76031998E-14, -1.03135984E+03,
                      -3.90841732E+00]),
                NASA([1959.08, 5000.00],
                     [ 2.78816583E+00,  5.87640942E-04,  1.59010417E-07,
                      -5.52739026E-11,  4.34310984E-15, -5.96144270E+02,
                       1.12732655E-01])))

species(name=u'C8H12(102)',
        atoms='H:12 C:8',
        thermo=(NASA([100.00, 973.99],
                     [ 1.29290720E+00,  3.40987620E-02,  8.83250757E-05,
                      -1.34013150E-07,  5.20549907E-11,  6.25186440E+03,
                       2.49510784E+01]),
                NASA([973.99, 5000.00],
                     [ 1.61828450E+01,  3.65065469E-02, -1.32663093E-05,
                       2.52136923E-09, -1.87069022E-13,  3.36603553E+02,
                      -6.19680596E+01])))

species(name=u'C6H8(119)',
        atoms='H:8 C:6',
        thermo=(NASA([100.00, 972.94],
                     [ 1.82686070E+00,  3.47046353E-02,  2.41070171E-05,
                      -5.44847920E-08,  2.29388832E-11,  1.99100661E+04,
                       1.81393315E+01]),
                NASA([972.94, 5000.00],
                     [ 1.21686202E+01,  2.40472785E-02, -8.58151834E-06,
                       1.57034031E-09, -1.12795334E-13,  1.63897115E+04,
                      -3.92195169E+01])))

species(name=u'S(190)',
        atoms='H:14 C:10',
        thermo=(NASA([100.00, 968.43],
                     [-1.78657670E-01,  6.27636610E-02,  6.13275679E-05,
                      -1.25568699E-07,  5.26247225E-11,  1.23467547E+04,
                       3.16624716E+01]),
                NASA([968.43, 5000.00],
                     [ 2.28001036E+01,  3.95488872E-02, -1.37666755E-05,
                       2.57450736E-09, -1.90686366E-13,  4.53405575E+03,
                      -9.58178615E+01])))

species(name=u'S(205)',
        atoms='H:16 C:12',
        thermo=(NASA([100.00, 980.77],
                     [-2.21845665E+00,  1.15202302E-01, -4.46058253E-05,
                      -2.89292454E-08,  2.08193354E-11,  3.97133228E+04,
                       4.48687920E+01]),
                NASA([980.77, 5000.00],
                     [ 2.59409200E+01,  4.89148103E-02, -1.74910345E-05,
                       3.12129948E-09, -2.18247198E-13,  3.18543069E+04,
                      -1.02343316E+02])))

species(name=u'S(216)',
        atoms='H:16 C:12',
        thermo=(NASA([100.00, 989.29],
                     [-1.49871027E+00,  8.97231513E-02,  3.13728211E-05,
                      -1.05849951E-07,  4.65472901E-11,  2.08342656E+04,
                       3.86324941E+01]),
                NASA([989.29, 5000.00],
                     [ 2.71231573E+01,  4.82447418E-02, -1.83146882E-05,
                       3.49879125E-09, -2.57494969E-13,  1.15378770E+04,
                      -1.17506583E+02])))

species(name=u'S(385)',
        atoms='H:16 C:12',
        thermo=(NASA([100.00, 990.94],
                     [-1.53673879E+00,  9.50296733E-02,  8.13325447E-06,
                      -7.82185025E-08,  3.63989841E-11,  2.10168816E+04,
                       3.81765950E+01]),
                NASA([990.94, 5000.00],
                     [ 2.49483558E+01,  5.05143791E-02, -1.89287732E-05,
                       3.52660923E-09, -2.53947844E-13,  1.27044184E+04,
                      -1.04814787E+02])))

species(name=u'S(572)',
        atoms='H:14 C:10',
        thermo=(NASA([100.00, 970.34],
                     [-3.28487740E-01,  6.79750194E-02,  4.42520541E-05,
                      -1.07809934E-07,  4.64255133E-11,  1.46939885E+04,
                       3.39002001E+01]),
                NASA([970.34, 5000.00],
                     [ 2.28201331E+01,  3.89925844E-02, -1.36560388E-05,
                       2.54270569E-09, -1.87097534E-13,  7.07363110E+03,
                      -9.31994007E+01])))

species(name=u'S(593)',
        atoms='H:16 C:12',
        thermo=(NASA([100.00, 982.76],
                     [-1.03808602E+00,  8.05740827E-02,  4.80027674E-05,
                      -1.17435606E-07,  4.97232474E-11,  2.09024065E+04,
                       3.77852686E+01]),
                NASA([982.76, 5000.00],
                     [ 2.39648304E+01,  5.16928884E-02, -1.91607213E-05,
                       3.59003721E-09, -2.61019934E-13,  1.24683578E+04,
                      -1.00311637E+02])))

species(name=u'S(789)',
        atoms='H:13 C:10',
        thermo=(NASA([100.00, 980.91],
                     [ 1.94989186E-02,  6.39056173E-02,  3.92339749E-05,
                      -9.37542751E-08,  3.95449728E-11,  2.69319302E+04,
                       3.53017303E+01]),
                NASA([980.91, 5000.00],
                     [ 1.91912226E+01,  4.27942394E-02, -1.57500129E-05,
                       2.92519683E-09, -2.11274814E-13,  2.04252710E+04,
                      -7.08159040E+01])))

species(name=u'S(928)',
        atoms='H:14 C:10',
        thermo=(NASA([100.00, 989.70],
                     [ 1.16213530E-02,  5.67932191E-02,  7.99766426E-05,
                      -1.39834678E-07,  5.55098314E-11,  1.18689052E+04,
                       2.94048011E+01]),
                NASA([989.70, 5000.00],
                     [ 2.16278620E+01,  4.53301017E-02, -1.76870600E-05,
                       3.44167971E-09, -2.56032011E-13,  3.87287380E+03,
                      -9.34372510E+01])))

species(name=u'S(1099)',
        atoms='H:10 C:7',
        thermo=(NASA([100.00, 978.55],
                     [ 1.83144977E+00,  2.06363349E-02,  1.08890919E-04,
                      -1.51232791E-07,  5.72826355E-11,  5.97057671E+03,
                       1.66031170E+01]),
                NASA([978.55, 5000.00],
                     [ 1.59825370E+01,  3.10964530E-02, -1.18468326E-05,
                       2.35586795E-09, -1.80193592E-13, -6.92551732E+01,
                      -6.80708888E+01])))

species(name=u'S(1411)',
        atoms='H:10 C:7',
        thermo=(NASA([100.00, 955.82],
                     [ 1.48815239E+00,  3.18444302E-02,  7.31362909E-05,
                      -1.19276583E-07,  4.82830646E-11,  8.79580288E+03,
                       2.11106153E+01]),
                NASA([955.82, 5000.00],
                     [ 1.72474758E+01,  2.46393030E-02, -7.74842595E-06,
                       1.44125128E-09, -1.09978719E-13,  3.09970252E+03,
                      -6.82445295E+01])))

species(name=u'S(1615)',
        atoms='H:10 C:7',
        thermo=(NASA([100.00, 991.10],
                     [ 1.45206258E+00,  3.95608276E-02,  3.79817813E-05,
                      -7.23333338E-08,  2.89390940E-11,  8.92709351E+03,
                       2.02436365E+01]),
                NASA([991.10, 5000.00],
                     [ 1.30087644E+01,  3.29171228E-02, -1.24993070E-05,
                       2.34279347E-09, -1.68970835E-13,  4.67185461E+03,
                      -4.53180090E+01])))

species(name=u'X(1)',
        atoms='X:1',
        thermo=(NASA([100.00, 1554.80],
                     [ 7.10139498E-03, -4.25619522E-05,  8.98533016E-08,
                      -7.80193649E-11,  2.32465471E-14, -8.76101712E-01,
                      -3.11211229E-02]),
                NASA([1554.80, 5000.00],
                     [ 1.60299900E-01, -2.52235409E-04,  1.14181275E-07,
                      -1.21471653E-11,  3.85790025E-16, -7.08100885E+01,
                      -9.09527530E-01])))

species(name=u'HX(5)',
        atoms='H:1 X:1',
        thermo=(NASA([100.00, 952.91],
                     [-3.80965452E-01,  5.47228709E-03,  2.60912778E-06,
                      -9.64961980E-09,  4.63946753E-12, -2.16972714E+03,
                       1.01725550E+00]),
                NASA([952.91, 5000.00],
                     [ 2.80339655E+00, -5.41047017E-04,  4.99507978E-07,
                      -7.54963647E-11,  3.06772366E-15, -3.11047656E+03,
                      -1.59436787E+01])))

species(name=u'C2H3X(37)',
        atoms='H:3 C:2 X:1',
        thermo=(NASA([100.00, 928.62],
                     [ 3.83091018E+00, -8.76381562E-03,  6.97956896E-05,
                      -8.67969174E-08,  3.33218121E-11,  9.57839188E+03,
                      -1.81151753E+01]),
                NASA([928.62, 5000.00],
                     [ 8.78054562E+00,  1.92497720E-03,  8.25825014E-07,
                      -1.63749818E-10,  5.71728318E-15,  7.27898875E+03,
                      -4.90588618E+01])))

species(name=u'allylX(38)',
        atoms='H:5 C:3 X:1',
        thermo=(NASA([100.00, 937.34],
                     [ 3.44148119E+00, -3.47700003E-03,  8.25933681E-05,
                      -1.05556823E-07,  4.04445066E-11,  6.03655374E+03,
                      -6.88846669E+00]),
                NASA([937.34, 5000.00],
                     [ 9.98148902E+00,  8.92268754E-03, -1.75442587E-06,
                       3.12285771E-10, -2.84156572E-14,  3.03975610E+03,
                      -4.74626902E+01])))

species(name=u'C3H5X(45)',
        atoms='H:5 C:3 X:1',
        thermo=(NASA([100.00, 939.06],
                     [ 3.23683359E+00,  3.73132320E-03,  6.01028900E-05,
                      -8.16245569E-08,  3.18536011E-11,  5.76515028E+03,
                      -1.35295467E+01]),
                NASA([939.06, 5000.00],
                     [ 9.70183185E+00,  9.48309646E-03, -2.25953763E-06,
                       3.98431327E-10, -3.27118882E-14,  3.08312135E+03,
                      -5.21282869E+01])))

species(name=u'C4H5X(80)',
        atoms='H:5 C:4 X:1',
        thermo=(NASA([100.00, 936.52],
                     [ 2.68471723E+00,  1.36244496E-02,  5.32591849E-05,
                      -8.32912448E-08,  3.41499374E-11,  1.16716221E+04,
                      -1.06510487E+01]),
                NASA([936.52, 5000.00],
                     [ 1.29012266E+01,  8.96921861E-03, -1.71920076E-06,
                       2.89744517E-10, -2.58686364E-14,  8.04858312E+03,
                      -6.83963397E+01])))

species(name=u'C4H5X(81)',
        atoms='H:5 C:4 X:1',
        thermo=(NASA([100.00, 928.63],
                     [ 2.64232495E+00,  8.31109593E-03,  8.12146261E-05,
                      -1.21398701E-07,  4.98630759E-11,  1.68545308E+04,
                      -1.03932963E+01]),
                NASA([928.63, 5000.00],
                     [ 1.69490474E+01,  2.00818812E-03,  2.03468841E-06,
                      -4.02657023E-10,  1.85400094E-14,  1.18120364E+04,
                      -9.11990785E+01])))

species(name=u'C6H7X(141)',
        atoms='H:7 C:6 X:1',
        thermo=(NASA([100.00, 939.12],
                     [ 1.23971063E+00,  4.15294424E-02,  2.87312030E-05,
                      -7.68516542E-08,  3.51745289E-11,  1.71382253E+04,
                      -4.03285459E+00]),
                NASA([939.12, 5000.00],
                     [ 1.93724853E+01,  1.27701081E-02, -2.75741682E-06,
                       4.63865028E-10, -3.86965214E-14,  1.15948950E+04,
                      -1.01754711E+02])))

species(name=u'C6H7X(142)',
        atoms='H:7 C:6 X:1',
        thermo=(NASA([100.00, 945.31],
                     [ 1.76545134E+00,  3.00643386E-02,  5.04823806E-05,
                      -9.18356912E-08,  3.86710488E-11,  2.47541668E+04,
                      -4.22047906E+00]),
                NASA([945.31, 5000.00],
                     [ 1.62876414E+01,  1.66989483E-02, -4.60790511E-06,
                       8.23797195E-10, -6.40998588E-14,  1.98601341E+04,
                      -8.48285150E+01])))

species(name=u'C6H7X(143)',
        atoms='H:7 C:6 X:1',
        thermo=(NASA([100.00, 945.31],
                     [ 1.76545134E+00,  3.00643386E-02,  5.04823806E-05,
                      -9.18356912E-08,  3.86710488E-11,  2.47541668E+04,
                      -4.22047906E+00]),
                NASA([945.31, 5000.00],
                     [ 1.62876414E+01,  1.66989483E-02, -4.60790511E-06,
                       8.23797195E-10, -6.40998588E-14,  1.98601341E+04,
                      -8.48285150E+01])))

species(name=u'SX(335)',
        atoms='H:13 C:10 X:1',
        thermo=(NASA([100.00, 980.09],
                     [-7.11601081E-02,  5.51564532E-02,  9.33356300E-05,
                      -1.59547857E-07,  6.38088151E-11,  1.53964082E+04,
                       9.46132705E+00]),
                NASA([980.09, 5000.00],
                     [ 2.40867320E+01,  4.15026012E-02, -1.57682102E-05,
                       3.09421209E-09, -2.34162753E-13,  6.58146354E+03,
                      -1.27412990E+02])))

species(name=u'SX(337)',
        atoms='H:15 C:12 X:1',
        thermo=(NASA([100.00, 987.58],
                     [-9.53673816E-01,  6.94567418E-02,  9.89953662E-05,
                      -1.75789719E-07,  7.03673048E-11,  2.08206604E+04,
                       1.65075881E+01]),
                NASA([987.58, 5000.00],
                     [ 2.75829861E+01,  5.08329941E-02, -1.99853220E-05,
                       3.94206265E-09, -2.96893311E-13,  1.04559973E+04,
                      -1.44747128E+02])))

species(name=u'SX(338)',
        atoms='H:15 C:12 X:1',
        thermo=(NASA([100.00, 979.08],
                     [-1.33399033E+00,  8.15327144E-02,  6.10796305E-05,
                      -1.40544064E-07,  5.96430299E-11,  2.48646581E+04,
                       1.53202014E+01]),
                NASA([979.08, 5000.00],
                     [ 2.88000583E+01,  4.54039529E-02, -1.68327432E-05,
                       3.24878532E-09, -2.43575828E-13,  1.47948859E+04,
                      -1.50712786E+02])))

species(name=u'SX(340)',
        atoms='H:15 C:12 X:1',
        thermo=(NASA([100.00, 975.90],
                     [-1.51414519E+00,  8.61139252E-02,  4.96902414E-05,
                      -1.31247290E-07,  5.71155160E-11,  2.45617435E+04,
                       1.54842336E+01]),
                NASA([975.90, 5000.00],
                     [ 2.97270467E+01,  4.33700161E-02, -1.57320116E-05,
                       3.01842347E-09, -2.26501124E-13,  1.44018912E+04,
                      -1.55286980E+02])))

species(name=u'SX(341)',
        atoms='H:15 C:12 X:1',
        thermo=(NASA([100.00, 975.90],
                     [-1.51414519E+00,  8.61139252E-02,  4.96902414E-05,
                      -1.31247290E-07,  5.71155160E-11,  2.45617435E+04,
                       1.54842336E+01]),
                NASA([975.90, 5000.00],
                     [ 2.97270467E+01,  4.33700161E-02, -1.57320116E-05,
                       3.01842347E-09, -2.26501124E-13,  1.44018912E+04,
                      -1.55286980E+02])))

species(name=u'SX(342)',
        atoms='H:15 C:12 X:1',
        thermo=(NASA([100.00, 970.41],
                     [-1.56569509E+00,  8.81414876E-02,  4.50605462E-05,
                      -1.27176203E-07,  5.60968067E-11,  1.98907551E+04,
                       1.47918280E+01]),
                NASA([970.41, 5000.00],
                     [ 2.93698510E+01,  4.39659324E-02, -1.54771168E-05,
                       2.91255684E-09, -2.16617391E-13,  9.96268515E+03,
                      -1.53743548E+02])))

species(name=u'SX(343)',
        atoms='H:15 C:12 X:1',
        thermo=(NASA([100.00, 970.72],
                     [-1.55417774E+00,  8.50306529E-02,  5.78320529E-05,
                      -1.43136626E-07,  6.21619029E-11,  2.56781023E+04,
                       1.55571823E+01]),
                NASA([970.72, 5000.00],
                     [ 3.11250979E+01,  4.10896422E-02, -1.44501156E-05,
                       2.77759506E-09, -2.10876373E-13,  1.50593707E+04,
                      -1.63146059E+02])))

species(name=u'SX(344)',
        atoms='H:15 C:12 X:1',
        thermo=(NASA([100.00, 970.72],
                     [-1.55417774E+00,  8.50306529E-02,  5.78320529E-05,
                      -1.43136626E-07,  6.21619029E-11,  2.56781023E+04,
                       1.55571823E+01]),
                NASA([970.72, 5000.00],
                     [ 3.11250979E+01,  4.10896422E-02, -1.44501156E-05,
                       2.77759506E-09, -2.10876373E-13,  1.50593707E+04,
                      -1.63146059E+02])))

species(name=u'SX(372)',
        atoms='H:15 C:12 X:1',
        thermo=(NASA([100.00, 964.56],
                     [-1.75671250E+00,  9.66647298E-02,  1.57481005E-05,
                      -9.63851787E-08,  4.56735206E-11,  2.08086246E+04,
                       1.75757747E+01]),
                NASA([964.56, 5000.00],
                     [ 2.84210888E+01,  4.39695462E-02, -1.49754042E-05,
                       2.72366072E-09, -1.97971363E-13,  1.16166407E+04,
                      -1.44396594E+02])))

species(name=u'SX(373)',
        atoms='H:15 C:12 X:1',
        thermo=(NASA([100.00, 977.06],
                     [-1.29321385E+00,  8.66749469E-02,  3.43353725E-05,
                      -1.07202573E-07,  4.72030711E-11,  2.42466698E+04,
                       1.53275985E+01]),
                NASA([977.06, 5000.00],
                     [ 2.53347610E+01,  4.91684887E-02, -1.78614970E-05,
                       3.31550889E-09, -2.40575403E-13,  1.56300842E+04,
                      -1.29985496E+02])))

species(name=u'SX(378)',
        atoms='H:15 C:12 X:1',
        thermo=(NASA([100.00, 981.44],
                     [-1.48485114E+00,  8.67553206E-02,  4.39699993E-05,
                      -1.22750540E-07,  5.34340252E-11,  2.75138681E+04,
                       1.82548250E+01]),
                NASA([981.44, 5000.00],
                     [ 2.88299677E+01,  4.48312255E-02, -1.67127878E-05,
                       3.21480867E-09, -2.39808226E-13,  1.76321195E+04,
                      -1.47457030E+02])))

species(name=u'SX(379)',
        atoms='H:15 C:12 X:1',
        thermo=(NASA([100.00, 983.60],
                     [-1.42362277E+00,  8.55736925E-02,  5.11149877E-05,
                      -1.27882240E-07,  5.45019018E-11,  1.79838383E+04,
                       1.44913452E+01]),
                NASA([983.60, 5000.00],
                     [ 2.72262458E+01,  5.03091262E-02, -1.90066716E-05,
                       3.62253129E-09, -2.66887245E-13,  8.41770265E+03,
                      -1.43232268E+02])))

species(name=u'SX(382)',
        atoms='H:15 C:12 X:1',
        thermo=(NASA([100.00, 974.76],
                     [-1.54764925E+00,  9.13659394E-02,  2.66459809E-05,
                      -1.03874422E-07,  4.70793245E-11,  2.47441658E+04,
                       1.50121895E+01]),
                NASA([974.76, 5000.00],
                     [ 2.75344795E+01,  4.56699367E-02, -1.63635908E-05,
                       3.05037899E-09, -2.23297492E-13,  1.55758783E+04,
                      -1.42495203E+02])))

species(name=u'SX(393)',
        atoms='H:15 C:12 X:1',
        thermo=(NASA([100.00, 1001.52],
                     [-1.31030883E+00,  9.26924766E-02,  4.68331905E-06,
                      -6.82413544E-08,  3.14724401E-11,  2.35074393E+04,
                       2.12825238E+01]),
                NASA([1001.52, 5000.00],
                     [ 2.20664136E+01,  5.45618914E-02, -2.09333815E-05,
                       3.87729474E-09, -2.75645478E-13,  1.60548645E+04,
                      -1.05361747E+02])))

species(name=u'SX(394)',
        atoms='H:15 C:12 X:1',
        thermo=(NASA([100.00, 977.25],
                     [-1.69881716E+00,  9.65928099E-02,  9.51811155E-06,
                      -8.60518252E-08,  4.08552434E-11,  2.70914571E+04,
                       1.79478750E+01]),
                NASA([977.25, 5000.00],
                     [ 2.75628281E+01,  4.50996572E-02, -1.62449630E-05,
                       3.01670152E-09, -2.19553810E-13,  1.81119027E+04,
                      -1.39230534E+02])))

species(name=u'C7H9X(397)',
        atoms='H:9 C:7 X:1',
        thermo=(NASA([100.00, 955.19],
                     [ 1.89512418E+00,  2.12472930E-02,  1.00078996E-04,
                      -1.43715119E-07,  5.60691395E-11,  8.98770750E+03,
                       1.23357643E+00]),
                NASA([955.19, 5000.00],
                     [ 1.55494597E+01,  2.73369167E-02, -8.83883832E-06,
                       1.64631913E-09, -1.24887319E-13,  3.49287875E+03,
                      -7.91233172E+01])))

species(name=u'SX(407)',
        atoms='H:13 C:10 X:1',
        thermo=(NASA([100.00, 974.47],
                     [-5.67822847E-01,  7.44332444E-02,  2.79708228E-05,
                      -9.21680029E-08,  4.10757439E-11,  1.87459723E+04,
                       1.12948281E+01]),
                NASA([974.47, 5000.00],
                     [ 2.33669438E+01,  3.89342397E-02, -1.39733942E-05,
                       2.60583334E-09, -1.90753815E-13,  1.11019471E+04,
                      -1.18844231E+02])))

species(name=u'SX(413)',
        atoms='H:15 C:12 X:1',
        thermo=(NASA([100.00, 977.25],
                     [-1.69881716E+00,  9.65928099E-02,  9.51811155E-06,
                      -8.60518252E-08,  4.08552434E-11,  2.94565863E+04,
                       1.72547278E+01]),
                NASA([977.25, 5000.00],
                     [ 2.75628281E+01,  4.50996572E-02, -1.62449630E-05,
                       3.01670152E-09, -2.19553810E-13,  2.04770318E+04,
                      -1.39923681E+02])))

species(name=u'SX(436)',
        atoms='H:13 C:10 X:1',
        thermo=(NASA([100.00, 989.97],
                     [ 5.10077553E-02,  5.68671363E-02,  7.82865244E-05,
                      -1.36598342E-07,  5.40706303E-11,  1.18888194E+04,
                       7.76929655E+00]),
                NASA([989.97, 5000.00],
                     [ 2.06205284E+01,  4.72489196E-02, -1.84967193E-05,
                       3.56725152E-09, -2.63099874E-13,  4.21483578E+03,
                      -1.09448512E+02])))

species(name=u'SX(437)',
        atoms='H:13 C:10 X:1',