units(length='cm', time='s', quantity='mol', act_energy='kcal/mol')

ideal_gas(name='gas',
          elements="H D T C Ci O Oi N Ne Ar He Si S Cl X",
          species="""n-heptane   Ar          He          Ne
                     N2          C2H4(2)     C4H8-1(3)   C4H8-2(4)
                     C4H6(7)     C6H8(9)     C5H6(18)    H2(68)
                     C4H6a(79)   C6H10d(84)  C8H10(113)  C6H9(136)
                     S(163)      S(181)      S(185)      S(189)
                     S(244)      S(264)      S(301)      S(518)
                     C6H10(651)  C8H12(652)  S(655)      S(659)
                     S(889)      S(1033)     S(1071)     S(1078)
                     S(1081)     S(1172)     S(1679)     S(2407)
                     S(2482)     S(3106)     C2H6(3444)  S(3524)
                     S(3526)     S(3533)     S(3601)     S(4318)
                     S(4324)     S(4604)     S(4972)     S(5094)
                     S(5207)     S(5436)     S(5633)     S(5860)
                     S(5930)     S(6098)""",
          reactions='gas-*',
          initial_state=state(temperature=300.0, pressure=OneAtm))

ideal_interface(name='surface1',
                elements="H D T C Ci O Oi N Ne Ar He Si S Cl X",
                species="""X(1)        HX(5)       C2H3X(37)   C2H5X(40)
                          C4H5X(80)   C4H5X(81)   C6H9X(159)  C6H9X(192)
                          SX(197)     SX(198)     SX(407)     SX(409)
                          SX(410)     SX(411)     SX(412)     SX(413)
                          SX(414)     SX(415)     SX(417)     SX(418)
                          SX(419)     SX(420)     SX(706)     SX(708)
                          SX(711)     SX(1064)    SX(1065)    SX(1106)
                          SX(1133)    SX(1890)    SX(1894)    SX(2005)
                          SX(2007)    SX(2254)    SX(2258)    SX(2284)
                          SX(2285)    SX(2288)    SX(2289)    SX(2292)
                          SX(2293)    SX(2294)    SX(2298)    SX(2299)
                          SX(2304)    SX(2305)    SX(2306)    SX(2313)
                          SX(2314)    SX(2315)    SX(2318)    SX(2319)
                          SX(2325)    SX(2368)    SX(2369)    SX(2376)
                          SX(2377)    SX(2380)    SX(2405)    SX(2406)
                          SX(2411)    SX(2412)    SX(2413)    SX(2414)
                          SX(2419)    SX(2420)    SX(2421)    SX(2422)
                          SX(2425)    SX(2426)    SX(2427)    SX(2432)
                          SX(2433)    SX(2466)    SX(2604)    SX(2605)
                          SX(2608)    SX(2609)    SX(2610)    SX(2612)
                          SX(2616)    SX(2617)    SX(2618)    SX(2622)
                          SX(2627)    SX(2640)    SX(2699)    SX(2702)
                          SX(2703)    SX(2863)    SX(2878)    SX(2879)
                          SX(2902)    SX(2904)    SX(2916)    SX(2917)
                          SX(2940)    SX(2953)    SX(2991)    SX(2994)
                          SX(2995)    SX(2997)    SX(2998)    SX(3001)
                          SX(3112)    SX(3113)    SX(3116)    SX(3265)
                          SX(3266)    SX(3267)    SX(3270)    SX(3271)
                          SX(3275)    SX(3876)    SX(3887)    SX(3888)
                          SX(3889)    SX(3895)    SX(3896)    SX(3897)
                          SX(3909)    SX(3922)    SX(3923)    SX(3935)
                          SX(3936)    SX(3941)    SX(3942)    SX(3943)
                          SX(3944)    SX(3956)    SX(3957)    SX(3966)
                          SX(3967)    SX(3984)    SX(3985)    SX(3986)
                          SX(4007)    SX(4008)    SX(4013)    SX(4014)
                          SX(4015)    SX(4016)    SX(4027)    SX(4034)
                          SX(4040)    SX(4052)    SX(4073)    SX(4083)
                          SX(4095)    SX(4121)    SX(4122)    SX(4192)
                          SX(4204)    SX(4211)    SX(4216)    SX(4217)
                          SX(4218)    SX(4224)    SX(4225)    SX(4226)
                          SX(4230)    SX(4231)    SX(4232)    SX(4252)
                          SX(4253)    SX(4260)    SX(4261)    SX(4266)
                          SX(4267)    SX(4276)    SX(4277)    SX(4290)
                          SX(4291)    SX(4569)    SX(4579)    SX(4592)
                          SX(4593)    SX(4595)    SX(4854)    SX(4855)
                          SX(4871)    SX(5606)    SX(5607)    SX(5807)
                          SX(5814)    SX(5817)    SX(5831)    SX(5832)
                          SX(5839)    SX(5851)    SX(5852)    SX(6085)
                          SX(6088)    SX(6228)    SX(6229)    SX(6230)
                          SX(6629)""",
                site_density=2.72e-09,
                phases="gas",
          reactions='surface1-*',
                initial_state=state(temperature=300.0, pressure=OneAtm))

#-------------------------------------------------------------------------------
# Element data
#-------------------------------------------------------------------------------

element(symbol=u'X', atomic_mass=195.083)
element(symbol=u'Ci', atomic_mass=13.003)
element(symbol=u'D', atomic_mass=2.014)
element(symbol=u'Oi', atomic_mass=18.0)
element(symbol=u'T', atomic_mass=3.016)
#-------------------------------------------------------------------------------
# Species data
#-------------------------------------------------------------------------------

species(name=u'n-heptane',
        atoms='H:16 C:7',
        thermo=(NASA([100.00, 1262.73],
                     [-2.91681405E-03,  7.69373649E-02, -3.48025563E-05,
                       1.86095180E-09,  2.01573617E-12, -2.57829342E+04,
                       3.00312148E+01]),
                NASA([1262.73, 5000.00],
                     [ 1.38377915E+01,  4.85945016E-02, -1.95474548E-05,
                       3.52837178E-09, -2.39064676E-13, -3.05141556E+04,
                      -4.48642836E+01])))

species(name=u'Ar',
        atoms='Ar:1',
        thermo=(NASA([200.00, 1000.00],
                     [ 2.50000000E+00,  0.00000000E+00,  0.00000000E+00,
                       0.00000000E+00,  0.00000000E+00, -7.45375000E+02,
                       4.37967000E+00]),
                NASA([1000.00, 6000.00],
                     [ 2.50000000E+00,  0.00000000E+00,  0.00000000E+00,
                       0.00000000E+00,  0.00000000E+00, -7.45375000E+02,
                       4.37967000E+00])))

species(name=u'He',
        atoms='He:1',
        thermo=(NASA([200.00, 1000.00],
                     [ 2.50000000E+00,  0.00000000E+00,  0.00000000E+00,
                       0.00000000E+00,  0.00000000E+00, -7.45375000E+02,
                       9.28724000E-01]),
                NASA([1000.00, 6000.00],
                     [ 2.50000000E+00,  0.00000000E+00,  0.00000000E+00,
                       0.00000000E+00,  0.00000000E+00, -7.45375000E+02,
                       9.28724000E-01])))

species(name=u'Ne',
        atoms='Ne:1',
        thermo=(NASA([200.00, 1000.00],
                     [ 2.50000000E+00,  0.00000000E+00,  0.00000000E+00,
                       0.00000000E+00,  0.00000000E+00, -7.45375000E+02,
                       3.35532000E+00]),
                NASA([1000.00, 6000.00],
                     [ 2.50000000E+00,  0.00000000E+00,  0.00000000E+00,
                       0.00000000E+00,  0.00000000E+00, -7.45375000E+02,
                       3.35532000E+00])))

species(name=u'N2',
        atoms='N:2',
        thermo=(NASA([200.00, 1000.00],
                     [ 3.53101000E+00, -1.23661000E-04, -5.02999000E-07,
                       2.43531000E-09, -1.40881000E-12, -1.04698000E+03,
                       2.96747000E+00]),
                NASA([1000.00, 6000.00],
                     [ 2.95258000E+00,  1.39690000E-03, -4.92632000E-07,
                       7.86010000E-11, -4.60755000E-15, -9.23949000E+02,
                       5.87189000E+00])))

species(name=u'C2H4(2)',
        atoms='H:4 C:2',
        thermo=(NASA([100.00, 979.36],
                     [ 3.97471606E+00, -4.75844285E-03,  4.16783770E-05,
                      -4.51392516E-08,  1.54224761E-11,  4.91540746E+03,
                       3.62430844E+00]),
                NASA([979.36, 5000.00],
                     [ 3.55660610E+00,  1.10627464E-02, -4.17019079E-06,
                       7.85586770E-10, -5.70060829E-14,  4.32046489E+03,
                       2.17719479E+00])))

species(name=u'C4H8-1(3)',
        atoms='H:8 C:4',
        thermo=(NASA([100.00, 1007.28],
                     [ 2.58772906E+00,  2.32777969E-02,  1.93412349E-05,
                      -3.55496333E-08,  1.36906009E-11, -1.91872926E+03,
                       1.45750618E+01]),
                NASA([1007.28, 5000.00],
                     [ 7.20517168E+00,  2.36361568E-02, -9.03150028E-06,
                       1.65392666E-09, -1.16019260E-13, -3.79733937E+03,
                      -1.24426257E+01])))

species(name=u'C4H8-2(4)',
        atoms='H:8 C:4',
        thermo=(NASA([100.00, 1157.79],
                     [ 2.51998327E+00,  2.76812799E-02,  9.43783469E-07,
                      -1.25009101E-08,  4.67144666E-12, -3.34374767E+03,
                       1.30195623E+01]),
                NASA([1157.79, 5000.00],
                     [ 6.04225708E+00,  2.60072350E-02, -1.04843374E-05,
                       1.90880922E-09, -1.30600505E-13, -4.86276511E+03,
                      -7.52715109E+00])))

species(name=u'C4H6(7)',
        atoms='H:6 C:4',
        thermo=(NASA([100.00, 946.05],
                     [ 2.80599310E+00,  1.02584471E-02,  6.17260255E-05,
                      -9.01642687E-08,  3.59116961E-11,  1.16584972E+04,
                       1.20621434E+01]),
                NASA([946.05, 5000.00],
                     [ 1.24693720E+01,  1.00553901E-02, -2.41206872E-06,
                       4.57077303E-10, -3.93160571E-14,  8.01077795E+03,
                      -4.36374720E+01])))

species(name=u'C6H8(9)',
        atoms='H:8 C:6',
        thermo=(NASA([100.00, 941.22],
                     [ 1.38427980E+00,  4.14411503E-02,  1.94287417E-05,
                      -6.16688700E-08,  2.86503633E-11,  1.76317461E+04,
                       1.93257509E+01]),
                NASA([941.22, 5000.00],
                     [ 1.69619680E+01,  1.57221707E-02, -4.10118367E-06,
                       6.95736344E-10, -5.26521484E-14,  1.29061672E+04,
                      -6.44097553E+01])))

species(name=u'C5H6(18)',
        atoms='H:6 C:5',
        thermo=(NASA([100.00, 947.12],
                     [ 3.00694403E+00,  1.49951852E-03,  9.70005180E-05,
                      -1.27800014E-07,  4.91203074E-11,  1.45638924E+04,
                       1.21161952E+01]),
                NASA([947.12, 5000.00],
                     [ 1.26018997E+01,  1.28860510E-02, -3.24387145E-06,
                       6.28094206E-10, -5.38400017E-14,  1.04181524E+04,
                      -4.59436988E+01])))

species(name=u'H2(68)',
        atoms='H:2',
        thermo=(NASA([100.00, 1959.08],
                     [ 3.43536412E+00,  2.12710353E-04, -2.78625043E-07,
                       3.40267167E-10, -7.76031998E-14, -1.03135984E+03,
                      -3.90841732E+00]),
                NASA([1959.08, 5000.00],
                     [ 2.78816583E+00,  5.87640942E-04,  1.59010417E-07,
                      -5.52739026E-11,  4.34310984E-15, -5.96144270E+02,
                       1.12732655E-01])))

species(name=u'C4H6a(79)',
        atoms='H:6 C:4',
        thermo=(NASA([100.00, 950.38],
                     [ 3.41327601E+00, -4.60830638E-03,  9.57205603E-05,
                      -1.18800574E-07,  4.44495312E-11,  1.74039828E+04,
                       1.01517556E+01]),
                NASA([950.38, 5000.00],
                     [ 9.72156091E+00,  1.36879055E-02, -3.93842260E-06,
                       7.58710118E-10, -6.16013131E-14,  1.41795804E+04,
                      -3.06164436E+01])))

species(name=u'C6H10d(84)',
        atoms='H:10 C:6',
        thermo=(NASA([100.00, 969.70],
                     [ 2.39493639E+00,  1.31308716E-02,  1.02019898E-04,
                      -1.35266841E-07,  5.06735576E-11, -2.55363631E+03,
                       1.63461006E+01]),
                NASA([969.70, 5000.00],
                     [ 1.20193596E+01,  2.96991246E-02, -1.06504175E-05,
                       2.03502649E-09, -1.52378829E-13, -7.06570658E+03,
                      -4.34309725E+01])))

species(name=u'C8H10(113)',
        atoms='H:10 C:8',
        thermo=(NASA([100.00, 941.38],
                     [ 8.64508879E-02,  6.59507123E-02,  1.49007776E-06,
                      -6.06862449E-08,  3.13845046E-11,  2.39088929E+04,
                       2.66192822E+01]),
                NASA([941.38, 5000.00],
                     [ 2.28417755E+01,  1.96704891E-02, -5.08803462E-06,
                       8.53682038E-10, -6.42382395E-14,  1.73909786E+04,
                      -9.36509497E+01])))

species(name=u'C6H9(136)',
        atoms='H:9 C:6',
        thermo=(NASA([100.00, 995.34],
                     [ 1.62522454E+00,  3.93401586E-02,  1.78978273E-05,
                      -4.78993847E-08,  2.01402388E-11,  1.69431093E+04,
                       2.25224222E+01]),
                NASA([995.34, 5000.00],
                     [ 1.22021413E+01,  2.74567638E-02, -1.03424270E-05,
                       1.92565312E-09, -1.38069748E-13,  1.33207104E+04,
                      -3.60755769E+01])))

species(name=u'S(163)',
        atoms='H:14 C:10',
        thermo=(NASA([100.00, 1005.33],
                     [-8.70330413E-01,  8.89793335E-02, -2.38552724E-05,
                      -3.15628111E-08,  1.81664076E-11,  3.78335548E+04,
                       4.06086741E+01]),
                NASA([1005.33, 5000.00],
                     [ 2.02610588E+01,  4.45995858E-02, -1.68699763E-05,
                       3.08363695E-09, -2.16972192E-13,  3.15786714E+04,
                      -7.14276628E+01])))

species(name=u'S(181)',
        atoms='H:16 C:12',
        thermo=(NASA([100.00, 985.43],
                     [-1.88304682E+00,  1.07042194E-01, -2.70554103E-05,
                      -4.30549514E-08,  2.47781880E-11,  4.00783494E+04,
                       4.74620913E+01]),
                NASA([985.43, 5000.00],
                     [ 2.44922294E+01,  5.06805346E-02, -1.84366585E-05,
                       3.32433721E-09, -2.33631810E-13,  3.24185269E+04,
                      -9.18863874E+01])))

species(name=u'S(185)',
        atoms='H:16 C:12',
        thermo=(NASA([100.00, 992.45],
                     [-1.36726188E+00,  9.09276671E-02,  1.69902518E-05,
                      -8.53947805E-08,  3.84301239E-11,  2.11993195E+04,
                       3.87738109E+01]),
                NASA([992.45, 5000.00],
                     [ 2.42201531E+01,  5.14040751E-02, -1.94056379E-05,
                       3.62910452E-09, -2.61722320E-13,  1.29880616E+04,
                      -1.00257920E+02])))

species(name=u'S(189)',
        atoms='H:16 C:12',
        thermo=(NASA([100.00, 961.97],
                     [-1.50816176E+00,  8.75229397E-02,  4.32196782E-05,
                      -1.26059866E-07,  5.63926918E-11,  3.17299871E+04,
                       4.22614545E+01]),
                NASA([961.97, 5000.00],
                     [ 2.93787122E+01,  4.15661279E-02, -1.37239862E-05,
                       2.52954162E-09, -1.88135179E-13,  2.19715065E+04,
                      -1.25386845E+02])))

species(name=u'S(244)',
        atoms='H:16 C:12',
        thermo=(NASA([100.00, 1082.71],
                     [-1.42165646E+00,  1.00366054E-01, -2.86690015E-05,
                      -2.45430021E-08,  1.37134617E-11,  2.67269131E+04,
                       3.45501008E+01]),
                NASA([1082.71, 5000.00],
                     [ 1.94956582E+01,  6.02181764E-02, -2.44875026E-05,
                       4.55572743E-09, -3.18938634E-13,  2.00211421E+04,
                      -7.80762928E+01])))

species(name=u'S(264)',
        atoms='H:16 C:12',
        thermo=(NASA([100.00, 967.86],
                     [-1.32209228E+00,  8.47378361E-02,  4.59787499E-05,
                      -1.23781967E-07,  5.42497769E-11,  2.23199283E+04,
                       3.57020946E+01]),
                NASA([967.86, 5000.00],
                     [ 2.71811605E+01,  4.57697461E-02, -1.58000646E-05,
                       2.92345730E-09, -2.14846023E-13,  1.31102045E+04,
                      -1.19952912E+02])))

species(name=u'S(301)',
        atoms='H:15 C:12',
        thermo=(NASA([100.00, 993.54],
                     [-1.21346258E+00,  8.43526020E-02,  3.95110756E-05,
                      -1.09218661E-07,  4.65596299E-11,  3.07992502E+04,
                       3.58638913E+01]),
                NASA([993.54, 5000.00],
                     [ 2.48582341E+01,  5.15640076E-02, -1.99549339E-05,
                       3.80148454E-09, -2.77628001E-13,  2.20562691E+04,
                      -1.07675478E+02])))

species(name=u'S(518)',
        atoms='H:16 C:12',
        thermo=(NASA([100.00, 986.81],
                     [-1.58942639E+00,  9.66108811E-02,  4.38238808E-06,
                      -7.51919667E-08,  3.56680424E-11,  2.22579493E+04,
                       3.42763923E+01]),
                NASA([986.81, 5000.00],
                     [ 2.50352801E+01,  5.01811066E-02, -1.85129907E-05,
                       3.42197162E-09, -2.45594998E-13,  1.40091654E+04,
                      -1.08989338E+02])))

species(name=u'C6H10(651)',
        atoms='H:10 C:6',
        thermo=(NASA([100.00, 1020.63],
                     [ 9.97427413E-01,  5.59777045E-02, -2.05880600E-05,
                      -1.17182304E-08,  8.13452041E-12,  6.30749855E+03,
                       2.38941836E+01]),
                NASA([1020.63, 5000.00],
                     [ 1.33828218E+01,  2.83661253E-02, -1.07663110E-05,
                       1.95749020E-09, -1.36589418E-13,  2.68926840E+03,
                      -4.14511818E+01])))

species(name=u'C8H12(652)',
        atoms='H:12 C:8',
        thermo=(NASA([100.00, 1002.94],
                     [ 1.69489980E-02,  7.28189377E-02, -2.16585698E-05,
                      -2.40807783E-08,  1.44597041E-11,  1.38562447E+04,
                       3.07679077E+01]),
                NASA([1002.94, 5000.00],
                     [ 1.77276883E+01,  3.45993801E-02, -1.29781828E-05,
                       2.37500136E-09, -1.67643536E-13,  8.67334638E+03,
                      -6.28559377E+01])))

species(name=u'S(655)',
        atoms='H:14 C:10',
        thermo=(NASA([100.00, 988.70],
                     [-1.28102885E+00,  9.73401935E-02, -3.96908570E-05,
                      -2.28883979E-08,  1.70599250E-11,  2.01333918E+04,
                       3.80613736E+01]),
                NASA([988.70, 5000.00],
                     [ 2.35618068E+01,  3.86218834E-02, -1.40063814E-05,
                       2.54246809E-09, -1.80004061E-13,  1.31784885E+04,
                      -9.18377566E+01])))

species(name=u'S(659)',
        atoms='H:14 C:10',
        thermo=(NASA([100.00, 986.06],
                     [-1.44909215E+00,  1.01424899E-01, -4.84844562E-05,
                      -1.57983685E-08,  1.50673204E-11,  1.99508936E+04,
                       3.67659825E+01]),
                NASA([986.06, 5000.00],
                     [ 2.42859453E+01,  3.77392366E-02, -1.35336379E-05,
                       2.44095589E-09, -1.72311717E-13,  1.28965094E+04,
                      -9.70649724E+01])))

species(name=u'S(889)',
        atoms='H:18 C:12',
        thermo=(NASA([100.00, 1043.00],
                     [-2.42964735E+00,  1.21600857E-01, -5.92243817E-05,
                      -7.36232612E-09,  1.08372833E-11,  3.04699784E+04,
                       4.98767523E+01]),
                NASA([1043.00, 5000.00],
                     [ 2.40506793E+01,  5.80556061E-02, -2.24990947E-05,
                       4.10281233E-09, -2.85477268E-13,  2.28787528E+04,
                      -8.89013084E+01])))

species(name=u'S(1033)',
        atoms='H:11 C:8',
        thermo=(NASA([100.00, 963.38],
                     [ 3.22493249E-01,  6.42731774E-02, -5.26621565E-07,
                      -4.79928404E-08,  2.39568848E-11,  2.32032772E+04,
                       2.89994585E+01]),
                NASA([963.38, 5000.00],
                     [ 1.79964989E+01,  3.07733805E-02, -1.04664727E-05,
                       1.85925265E-09, -1.31719885E-13,  1.79471317E+04,
                      -6.52137579E+01])))

species(name=u'S(1071)',
        atoms='H:16 C:12',
        thermo=(NASA([100.00, 992.69],
                     [-2.16821098E+00,  1.13500613E-01, -4.18937515E-05,
                      -3.03524070E-08,  2.07540517E-11,  4.41106970E+04,
                       4.79017194E+01]),
                NASA([992.69, 5000.00],
                     [ 2.60887848E+01,  4.86324276E-02, -1.79039207E-05,
                       3.25242392E-09, -2.29439930E-13,  3.60866742E+04,
                      -1.00373160E+02])))

species(name=u'S(1078)',
        atoms='H:16 C:12',
        thermo=(NASA([100.00, 992.45],
                     [-1.36726188E+00,  9.09276671E-02,  1.69902518E-05,
                      -8.53947805E-08,  3.84301239E-11,  2.11993195E+04,
                       3.87738109E+01]),
                NASA([992.45, 5000.00],
                     [ 2.42201531E+01,  5.14040751E-02, -1.94056379E-05,
                       3.62910452E-09, -2.61722320E-13,  1.29880616E+04,
                      -1.00257920E+02])))

species(name=u'S(1081)',
        atoms='H:16 C:12',
        thermo=(NASA([100.00, 967.03],
                     [-1.31139837E+00,  8.32287582E-02,  5.20151204E-05,
                      -1.31415519E-07,  5.72186862E-11,  1.88065247E+04,
                       3.95685998E+01]),
                NASA([967.03, 5000.00],
                     [ 2.79480815E+01,  4.43915206E-02, -1.52324201E-05,
                       2.83531855E-09, -2.10070864E-13,  9.30452597E+03,
                      -1.20480836E+02])))

species(name=u'S(1172)',
        atoms='H:12 C:8',
        thermo=(NASA([100.00, 1016.52],
                     [-1.10429280E-01,  7.70814645E-02, -3.47833140E-05,
                      -1.00302869E-08,  9.42640217E-12,  1.21750142E+04,
                       2.97645889E+01]),
                NASA([1016.52, 5000.00],
                     [ 1.75623558E+01,  3.50022757E-02, -1.32158186E-05,
                       2.40320183E-09, -1.68059077E-13,  7.16317806E+03,
                      -6.27651255E+01])))

species(name=u'S(1679)',
        atoms='H:16 C:12',
        thermo=(NASA([100.00, 995.36],
                     [-1.38075117E+00,  9.24683015E-02,  1.08518849E-05,
                      -7.76445350E-08,  3.54197768E-11,  2.47128441E+04,
                       3.49174086E+01]),
                NASA([995.36, 5000.00],
                     [ 2.34747752E+01,  5.27464139E-02, -1.99528912E-05,
                       3.71247862E-09, -2.66105517E-13,  1.67844433E+04,
                      -9.98517432E+01])))

species(name=u'S(2407)',
        atoms='H:15 C:12',
        thermo=(NASA([100.00, 993.54],
                     [-1.21346258E+00,  8.43526020E-02,  3.95110756E-05,
                      -1.09218661E-07,  4.65596299E-11,  3.07992502E+04,
                       3.58638913E+01]),
                NASA([993.54, 5000.00],
                     [ 2.48582341E+01,  5.15640076E-02, -1.99549339E-05,
                       3.80148454E-09, -2.77628001E-13,  2.20562691E+04,
                      -1.07675478E+02])))

species(name=u'S(2482)',
        atoms='H:14 C:8',
        thermo=(NASA([100.00, 999.32],
                     [-8.27296041E-02,  7.33926821E-02, -9.70961131E-06,
                      -3.77339221E-08,  1.91784792E-11, -2.27794802E+03,
                       3.16114703E+01]),
                NASA([999.32, 5000.00],
                     [ 1.74908493E+01,  3.99675318E-02, -1.49508424E-05,
                       2.72972667E-09, -1.92366979E-13, -7.63361766E+03,
                      -6.23819175E+01])))

species(name=u'S(3106)',
        atoms='H:14 C:8',
        thermo=(NASA([100.00, 1679.81],
                     [ 1.34479463E-01,  8.12807397E-02, -5.06581179E-05,
                       1.60740811E-08, -2.12003077E-12, -4.14905031E+02,
                       3.03348271E+01]),
                NASA([1679.81, 5000.00],
                     [ 1.52493559E+01,  4.52883876E-02, -1.85180252E-05,
                       3.31846314E-09, -2.21633288E-13, -5.49286133E+03,
                      -5.04253072E+01])))

species(name=u'C2H6(3444)',
        atoms='H:6 C:2',
        thermo=(NASA([100.00, 1012.42],
                     [ 3.72239291E+00,  1.65083841E-03,  3.44175530E-05,
                      -3.76858229E-08,  1.24450657E-11, -1.15575901E+04,
                       4.68247999E+00]),
                NASA([1012.42, 5000.00],
                     [ 2.82848257E+00,  1.73040568E-02, -6.73334245E-06,
                       1.23742024E-09, -8.65676410E-14, -1.19978080E+04,
                       5.93811707E+00])))

species(name=u'S(3524)',
        atoms='H:16 C:10',
        thermo=(NASA([100.00, 998.54],
                     [-1.49361052E+00,  1.01821732E-01, -4.02286750E-05,
                      -2.25819229E-08,  1.65582874E-11,  3.43615932E+03,
                       3.85799402E+01]),
                NASA([998.54, 5000.00],
                     [ 2.30500803E+01,  4.47787502E-02, -1.65426556E-05,
                       3.00048373E-09, -2.10848170E-13, -3.52315514E+03,
                      -9.00970829E+01])))

species(name=u'S(3526)',
        atoms='H:16 C:10',
        thermo=(NASA([100.00, 998.54],
                     [-1.49361052E+00,  1.01821732E-01, -4.02286750E-05,
                      -2.25819229E-08,  1.65582874E-11,  3.43615932E+03,
                       3.85799402E+01]),
                NASA([998.54, 5000.00],
                     [ 2.30500803E+01,  4.47787502E-02, -1.65426556E-05,
                       3.00048373E-09, -2.10848170E-13, -3.52315514E+03,
                      -9.00970829E+01])))

species(name=u'S(3533)',
        atoms='H:16 C:10',
        thermo=(NASA([100.00, 1499.17],
                     [-1.44206447E+00,  1.08923833E-01, -7.89738622E-05,
                       2.98729822E-08, -4.63174028E-12,  5.87489987E+03,
                       3.86404823E+01]),
                NASA([1499.17, 5000.00],
                     [ 2.07658862E+01,  4.96699196E-02, -1.96872196E-05,
                       3.50880892E-09, -2.35284323E-13, -7.83807358E+02,
                      -7.74923283E+01])))

species(name=u'S(3601)',
        atoms='H:14 C:9',
        thermo=(NASA([100.00, 1165.79],
                     [-8.89848491E-01,  9.45115331E-02, -6.28175193E-05,
                       1.77924530E-08, -9.02034155E-13,  1.01901536E+04,
                       3.48501031E+01]),
                NASA([1165.79, 5000.00],
                     [ 1.86327724E+01,  4.31723992E-02, -1.68917310E-05,
                       3.04167725E-09, -2.07548692E-13,  4.57510865E+03,
                      -6.68899639E+01])))

species(name=u'S(4318)',
        atoms='H:16 C:12',
        thermo=(NASA([100.00, 1001.27],
                     [-1.61445120E+00,  9.38186297E-02,  2.11498306E-05,
                      -9.29803297E-08,  4.11744811E-11,  1.63862997E+04,
                       3.46712738E+01]),
                NASA([1001.27, 5000.00],
                     [ 2.61263792E+01,  5.23195880E-02, -2.05346805E-05,
                       3.92282899E-09, -2.85955038E-13,  7.35612477E+03,
                      -1.16550241E+02])))

species(name=u'S(4324)',
        atoms='H:16 C:12',
        thermo=(NASA([100.00, 980.19],
                     [-1.34741320E+00,  8.18496455E-02,  6.31312957E-05,
                      -1.42061783E-07,  5.99222203E-11,  1.66010864E+04,
                       3.61242259E+01]),
                NASA([980.19, 5000.00],
                     [ 2.82980878E+01,  4.77857901E-02, -1.77479960E-05,
                       3.41191849E-09, -2.54547698E-13,  6.61420178E+03,
                      -1.27603184E+02])))

species(name=u'S(4604)',
        atoms='H:16 C:10',
        thermo=(NASA([100.00, 1499.17],
                     [-1.44206447E+00,  1.08923833E-01, -7.89738622E-05,
                       2.98729822E-08, -4.63174028E-12,  5.87489987E+03,
                       3.86404823E+01]),
                NASA([1499.17, 5000.00],
                     [ 2.07658862E+01,  4.96699196E-02, -1.96872196E-05,
                       3.50880892E-09, -2.35284323E-13, -7.83807358E+02,
                      -7.74923283E+01])))

species(name=u'S(4972)',
        atoms='H:16 C:12',
        thermo=(NASA([100.00, 985.09],
                     [-1.75827122E+00,  1.00704896E-01, -4.44402128E-06,
                      -6.80593883E-08,  3.36574287E-11,  2.20754846E+04,
                       3.36769437E+01]),
                NASA([985.09, 5000.00],
                     [ 2.57629599E+01,  4.92924651E-02, -1.80368013E-05,
                       3.31964736E-09, -2.37835419E-13,  1.37256886E+04,
                      -1.13543362E+02])))

species(name=u'S(5094)',
        atoms='H:16 C:12',
        thermo=(NASA([100.00, 977.65],
                     [-1.26030227E+00,  8.62556301E-02,  3.54127882E-05,
                      -1.07276104E-07,  4.69896899E-11,  2.19610399E+04,
                       3.32881731E+01]),
                NASA([977.65, 5000.00],
                     [ 2.47916538E+01,  5.04509173E-02, -1.82574767E-05,
                       3.38046286E-09, -2.44693941E-13,  1.34842589E+04,
                      -1.09109450E+02])))

species(name=u'S(5207)',
        atoms='H:16 C:12',
        thermo=(NASA([100.00, 991.70],
                     [ 1.64598798E-01,  5.26282254E-02,  1.08722470E-04,