units(length='cm', time='s', quantity='mol', act_energy='kcal/mol')

ideal_gas(name='gas',
          elements="H D T C Ci O Oi N Ne Ar He Si S Cl X",
          species="""n-heptane   Ar          He          Ne
                     N2          C2H4(2)     C4H8-1(3)   C4H8-2(4)
                     C4H6(7)     C3H6(32)    H2(68)      C8H12(102)
                     C6H8(119)   S(190)      S(205)      S(216)
                     S(385)      S(542)      S(622)      S(683)
                     S(704)      S(736)      S(827)      S(1040)
                     S(1097)     S(1161)     S(1406)     S(1515)
                     S(1617)     S(1826)     S(1839)     S(1861)
                     S(1891)     S(2015)     S(2108)     S(2244)
                     S(2258)     S(2357)     S(2582)     S(2688)
                     S(3073)     S(3317)     S(3554)     S(3626)
                     S(3890)     S(4056)     S(4385)""",
          reactions='gas-*',
          initial_state=state(temperature=300.0, pressure=OneAtm))

ideal_interface(name='surface1',
                elements="H D T C Ci O Oi N Ne Ar He Si S Cl X",
                species="""X(1)        HX(5)       C2H3X(37)   allylX(38)
                          C3H5X(45)   C4H5X(80)   C4H5X(81)   C6H7X(143)
                          SX(335)     SX(337)     SX(338)     SX(340)
                          SX(341)     SX(342)     SX(343)     SX(344)
                          SX(372)     SX(373)     SX(378)     SX(379)
                          SX(382)     SX(393)     SX(394)     C7H9X(397)
                          SX(407)     SX(413)     SX(436)     SX(437)
                          SX(439)     SX(507)     SX(508)     SX(509)
                          SX(510)     SX(511)     SX(512)     SX(645)
                          SX(647)     SX(648)     SX(649)     SX(650)
                          SX(651)     SX(652)     SX(678)     SX(679)
                          SX(702)     SX(820)     SX(824)     SX(825)
                          SX(848)     SX(849)     SX(861)     SX(946)
                          SX(947)     SX(949)     SX(950)     SX(951)
                          SX(952)     SX(953)     SX(954)     SX(955)
                          SX(973)     SX(987)     SX(1061)    SX(1062)
                          SX(1063)    SX(1064)    SX(1066)    SX(1067)
                          SX(1068)    SX(1069)    SX(1070)    SX(1091)
                          SX(1181)    SX(1183)    SX(1184)    SX(1185)
                          SX(1186)    SX(1187)    SX(1188)    SX(1189)
                          SX(1190)    SX(1215)    SX(1310)    SX(1314)
                          SX(1331)    SX(1332)    SX(1346)    SX(1635)
                          SX(1636)    SX(1638)    SX(1640)    SX(1643)
                          SX(1647)    SX(1770)    SX(1776)    SX(1788)
                          SX(1800)    SX(1817)    SX(1818)    SX(1819)
                          SX(1822)    SX(1823)    SX(1836)    SX(1848)
                          SX(1854)    SX(1855)    SX(1856)    SX(1858)
                          SX(1869)    SX(1870)    SX(1882)    SX(1954)
                          SX(1956)    SX(1957)    SX(1958)    SX(1959)
                          SX(2085)    SX(2087)    SX(2090)    SX(2093)
                          SX(2094)    SX(2173)    SX(2176)    SX(2177)
                          SX(2178)    SX(2179)    SX(2223)    SX(2234)
                          SX(2235)    SX(2236)    SX(2240)    SX(2253)
                          SX(2254)    SX(2256)    SX(2272)    SX(2376)
                          SX(2377)    SX(2379)    SX(2381)    SX(2382)
                          SX(2383)    SX(2384)    SX(2708)    SX(2709)
                          SX(2712)    SX(2716)    SX(2719)    SX(2720)
                          SX(2851)    SX(2853)    SX(2897)    SX(2899)
                          SX(2900)    SX(2901)    SX(3087)    SX(3089)
                          SX(3090)    SX(3310)    SX(3314)    SX(3323)
                          SX(3392)    SX(3394)    SX(3396)    SX(3397)
                          SX(3398)    SX(3399)    SX(3428)    SX(3550)
                          SX(3568)    SX(3644)    SX(3645)    SX(3652)
                          SX(3653)    SX(3993)    SX(4000)    SX(4001)
                          SX(4002)    SX(4003)    SX(4051)    SX(4145)
                          SX(4190)    SX(4191)    SX(4435)    SX(4437)
                          SX(4438)""",
                site_density=2.72e-09,
                phases="gas",
          reactions='surface1-*',
                initial_state=state(temperature=300.0, pressure=OneAtm))

#-------------------------------------------------------------------------------
# Element data
#-------------------------------------------------------------------------------

element(symbol=u'X', atomic_mass=195.083)
element(symbol=u'Ci', atomic_mass=13.003)
element(symbol=u'D', atomic_mass=2.014)
element(symbol=u'Oi', atomic_mass=18.0)
element(symbol=u'T', atomic_mass=3.016)
#-------------------------------------------------------------------------------
# Species data
#-------------------------------------------------------------------------------

species(name=u'n-heptane',
        atoms='H:16 C:7',
        thermo=(NASA([100.00, 1262.73],
                     [-2.91681405E-03,  7.69373649E-02, -3.48025563E-05,
                       1.86095180E-09,  2.01573617E-12, -2.57829342E+04,
                       3.00312148E+01]),
                NASA([1262.73, 5000.00],
                     [ 1.38377915E+01,  4.85945016E-02, -1.95474548E-05,
                       3.52837178E-09, -2.39064676E-13, -3.05141556E+04,
                      -4.48642836E+01])))

species(name=u'Ar',
        atoms='Ar:1',
        thermo=(NASA([200.00, 1000.00],
                     [ 2.50000000E+00,  0.00000000E+00,  0.00000000E+00,
                       0.00000000E+00,  0.00000000E+00, -7.45375000E+02,
                       4.37967000E+00]),
                NASA([1000.00, 6000.00],
                     [ 2.50000000E+00,  0.00000000E+00,  0.00000000E+00,
                       0.00000000E+00,  0.00000000E+00, -7.45375000E+02,
                       4.37967000E+00])))

species(name=u'He',
        atoms='He:1',
        thermo=(NASA([200.00, 1000.00],
                     [ 2.50000000E+00,  0.00000000E+00,  0.00000000E+00,
                       0.00000000E+00,  0.00000000E+00, -7.45375000E+02,
                       9.28724000E-01]),
                NASA([1000.00, 6000.00],
                     [ 2.50000000E+00,  0.00000000E+00,  0.00000000E+00,
                       0.00000000E+00,  0.00000000E+00, -7.45375000E+02,
                       9.28724000E-01])))

species(name=u'Ne',
        atoms='Ne:1',
        thermo=(NASA([200.00, 1000.00],
                     [ 2.50000000E+00,  0.00000000E+00,  0.00000000E+00,
                       0.00000000E+00,  0.00000000E+00, -7.45375000E+02,
                       3.35532000E+00]),
                NASA([1000.00, 6000.00],
                     [ 2.50000000E+00,  0.00000000E+00,  0.00000000E+00,
                       0.00000000E+00,  0.00000000E+00, -7.45375000E+02,
                       3.35532000E+00])))

species(name=u'N2',
        atoms='N:2',
        thermo=(NASA([200.00, 1000.00],
                     [ 3.53101000E+00, -1.23661000E-04, -5.02999000E-07,
                       2.43531000E-09, -1.40881000E-12, -1.04698000E+03,
                       2.96747000E+00]),
                NASA([1000.00, 6000.00],
                     [ 2.95258000E+00,  1.39690000E-03, -4.92632000E-07,
                       7.86010000E-11, -4.60755000E-15, -9.23949000E+02,
                       5.87189000E+00])))

species(name=u'C2H4(2)',
        atoms='H:4 C:2',
        thermo=(NASA([100.00, 979.36],
                     [ 3.97471606E+00, -4.75844285E-03,  4.16783770E-05,
                      -4.51392516E-08,  1.54224761E-11,  4.91540746E+03,
                       3.62430844E+00]),
                NASA([979.36, 5000.00],
                     [ 3.55660610E+00,  1.10627464E-02, -4.17019079E-06,
                       7.85586770E-10, -5.70060829E-14,  4.32046489E+03,
                       2.17719479E+00])))

species(name=u'C4H8-1(3)',
        atoms='H:8 C:4',
        thermo=(NASA([100.00, 1007.28],
                     [ 2.58772906E+00,  2.32777969E-02,  1.93412349E-05,
                      -3.55496333E-08,  1.36906009E-11, -1.91872926E+03,
                       1.45750618E+01]),
                NASA([1007.28, 5000.00],
                     [ 7.20517168E+00,  2.36361568E-02, -9.03150028E-06,
                       1.65392666E-09, -1.16019260E-13, -3.79733937E+03,
                      -1.24426257E+01])))

species(name=u'C4H8-2(4)',
        atoms='H:8 C:4',
        thermo=(NASA([100.00, 1157.79],
                     [ 2.51998327E+00,  2.76812799E-02,  9.43783469E-07,
                      -1.25009101E-08,  4.67144666E-12, -3.34374767E+03,
                       1.30195623E+01]),
                NASA([1157.79, 5000.00],
                     [ 6.04225708E+00,  2.60072350E-02, -1.04843374E-05,
                       1.90880922E-09, -1.30600505E-13, -4.86276511E+03,
                      -7.52715109E+00])))

species(name=u'C4H6(7)',
        atoms='H:6 C:4',
        thermo=(NASA([100.00, 946.05],
                     [ 2.80599310E+00,  1.02584471E-02,  6.17260255E-05,
                      -9.01642687E-08,  3.59116961E-11,  1.16584972E+04,
                       1.20621434E+01]),
                NASA([946.05, 5000.00],
                     [ 1.24693720E+01,  1.00553901E-02, -2.41206872E-06,
                       4.57077303E-10, -3.93160571E-14,  8.01077795E+03,
                      -4.36374720E+01])))

species(name=u'C3H6(32)',
        atoms='H:6 C:3',
        thermo=(NASA([100.00, 983.75],
                     [ 3.31912102E+00,  8.17958674E-03,  3.34736123E-05,
                      -4.36193684E-08,  1.58213364E-11,  7.49325328E+02,
                       9.54025058E+00]),
                NASA([983.75, 5000.00],
                     [ 5.36755173E+00,  1.70743019E-02, -6.35107626E-06,
                       1.16619529E-09, -8.27620279E-14, -4.87138326E+02,
                      -4.54467529E+00])))

species(name=u'H2(68)',
        atoms='H:2',
        thermo=(NASA([100.00, 1959.08],
                     [ 3.43536412E+00,  2.12710353E-04, -2.78625043E-07,
                       3.40267167E-10, -7.76031998E-14, -1.03135984E+03,
                      -3.90841732E+00]),
                NASA([1959.08, 5000.00],
                     [ 2.78816583E+00,  5.87640942E-04,  1.59010417E-07,
                      -5.52739026E-11,  4.34310984E-15, -5.96144270E+02,
                       1.12732655E-01])))

species(name=u'C8H12(102)',
        atoms='H:12 C:8',
        thermo=(NASA([100.00, 973.99],
                     [ 1.29290720E+00,  3.40987620E-02,  8.83250757E-05,
                      -1.34013150E-07,  5.20549907E-11,  6.25186440E+03,
                       2.49510784E+01]),
                NASA([973.99, 5000.00],
                     [ 1.61828450E+01,  3.65065469E-02, -1.32663093E-05,
                       2.52136923E-09, -1.87069022E-13,  3.36603553E+02,
                      -6.19680596E+01])))

species(name=u'C6H8(119)',
        atoms='H:8 C:6',
        thermo=(NASA([100.00, 972.94],
                     [ 1.82686070E+00,  3.47046353E-02,  2.41070171E-05,
                      -5.44847920E-08,  2.29388832E-11,  1.99100661E+04,
                       1.81393315E+01]),
                NASA([972.94, 5000.00],
                     [ 1.21686202E+01,  2.40472785E-02, -8.58151834E-06,
                       1.57034031E-09, -1.12795334E-13,  1.63897115E+04,
                      -3.92195169E+01])))

species(name=u'S(190)',
        atoms='H:14 C:10',
        thermo=(NASA([100.00, 968.43],
                     [-1.78657670E-01,  6.27636610E-02,  6.13275679E-05,
                      -1.25568699E-07,  5.26247225E-11,  1.23467547E+04,
                       3.16624716E+01]),
                NASA([968.43, 5000.00],
                     [ 2.28001036E+01,  3.95488872E-02, -1.37666755E-05,
                       2.57450736E-09, -1.90686366E-13,  4.53405575E+03,
                      -9.58178615E+01])))

species(name=u'S(205)',
        atoms='H:16 C:12',
        thermo=(NASA([100.00, 980.77],
                     [-2.21845665E+00,  1.15202302E-01, -4.46058253E-05,
                      -2.89292454E-08,  2.08193354E-11,  3.97133228E+04,
                       4.48687920E+01]),
                NASA([980.77, 5000.00],
                     [ 2.59409200E+01,  4.89148103E-02, -1.74910345E-05,
                       3.12129948E-09, -2.18247198E-13,  3.18543069E+04,
                      -1.02343316E+02])))

species(name=u'S(216)',
        atoms='H:16 C:12',
        thermo=(NASA([100.00, 989.29],
                     [-1.49871027E+00,  8.97231513E-02,  3.13728211E-05,
                      -1.05849951E-07,  4.65472901E-11,  2.08342656E+04,
                       3.86324941E+01]),
                NASA([989.29, 5000.00],
                     [ 2.71231573E+01,  4.82447418E-02, -1.83146882E-05,
                       3.49879125E-09, -2.57494969E-13,  1.15378770E+04,
                      -1.17506583E+02])))

species(name=u'S(385)',
        atoms='H:16 C:12',
        thermo=(NASA([100.00, 990.94],
                     [-1.53673879E+00,  9.50296733E-02,  8.13325447E-06,
                      -7.82185025E-08,  3.63989841E-11,  2.10168816E+04,
                       3.81765950E+01]),
                NASA([990.94, 5000.00],
                     [ 2.49483558E+01,  5.05143791E-02, -1.89287732E-05,
                       3.52660923E-09, -2.53947844E-13,  1.27044184E+04,
                      -1.04814787E+02])))

species(name=u'S(542)',
        atoms='H:15 C:12',
        thermo=(NASA([100.00, 992.27],
                     [-1.38340081E+00,  8.84602237E-02,  3.06336545E-05,
                      -1.02014839E-07,  4.45162985E-11,  3.06168321E+04,
                       3.52683180E+01]),
                NASA([992.27, 5000.00],
                     [ 2.55878851E+01,  5.06718152E-02, -1.94766159E-05,
                       3.69864365E-09, -2.69824719E-13,  2.17720278E+04,
                      -1.12240478E+02])))

species(name=u'S(622)',
        atoms='H:16 C:12',
        thermo=(NASA([100.00, 1013.91],
                     [-1.68456148E+00,  9.75829838E-02,  6.75024727E-06,
                      -7.54669033E-08,  3.43459639E-11,  1.64263299E+04,
                       3.47931908E+01]),
                NASA([1013.91, 5000.00],
                     [ 2.51858810E+01,  5.41893443E-02, -2.16834289E-05,
                       4.13524866E-09, -2.99152202E-13,  7.75908379E+03,
                      -1.11083545E+02])))

species(name=u'S(683)',
        atoms='H:14 C:10',
        thermo=(NASA([100.00, 970.34],
                     [-3.28487740E-01,  6.79750194E-02,  4.42520541E-05,
                      -1.07809934E-07,  4.64255133E-11,  1.46939885E+04,
                       3.39002001E+01]),
                NASA([970.34, 5000.00],
                     [ 2.28201331E+01,  3.89925844E-02, -1.36560388E-05,
                       2.54270569E-09, -1.87097534E-13,  7.07363110E+03,
                      -9.31994007E+01])))

species(name=u'S(704)',
        atoms='H:16 C:12',
        thermo=(NASA([100.00, 982.76],
                     [-1.03808602E+00,  8.05740827E-02,  4.80027674E-05,
                      -1.17435606E-07,  4.97232474E-11,  2.09024065E+04,
                       3.77852686E+01]),
                NASA([982.76, 5000.00],
                     [ 2.39648304E+01,  5.16928884E-02, -1.91607213E-05,
                       3.59003721E-09, -2.61019934E-13,  1.24683578E+04,
                      -1.00311637E+02])))

species(name=u'S(736)',
        atoms='H:15 C:12',
        thermo=(NASA([100.00, 942.04],
                     [-1.58947506E+00,  9.96790343E-02, -9.80779895E-06,
                      -6.55996910E-08,  3.51324607E-11,  3.07361694E+04,
                       4.09976334E+01]),
                NASA([942.04, 5000.00],
                     [ 2.50044823E+01,  4.44935724E-02, -1.38685304E-05,
                       2.33330510E-09, -1.61367813E-13,  2.31638486E+04,
                      -9.93121534E+01])))

species(name=u'S(827)',
        atoms='H:16 C:12',
        thermo=(NASA([100.00, 1013.91],
                     [-1.68456148E+00,  9.75829838E-02,  6.75024727E-06,
                      -7.54669033E-08,  3.43459639E-11,  1.64263299E+04,
                       3.47931908E+01]),
                NASA([1013.91, 5000.00],
                     [ 2.51858810E+01,  5.41893443E-02, -2.16834289E-05,
                       4.13524866E-09, -2.99152202E-13,  7.75908379E+03,
                      -1.11083545E+02])))

species(name=u'S(1040)',
        atoms='H:16 C:12',
        thermo=(NASA([100.00, 1049.01],
                     [-1.27811641E+00,  9.55421588E-02, -1.31865110E-05,
                      -4.20068246E-08,  2.02120066E-11,  2.05632801E+04,
                       3.72588317E+01]),
                NASA([1049.01, 5000.00],
                     [ 1.96609055E+01,  5.93539948E-02, -2.38627493E-05,
                       4.44850930E-09, -3.13394114E-13,  1.37682769E+04,
                      -7.62103408E+01])))

species(name=u'S(1097)',
        atoms='H:15 C:12',
        thermo=(NASA([100.00, 992.27],
                     [-1.38340081E+00,  8.84602237E-02,  3.06336545E-05,
                      -1.02014839E-07,  4.45162985E-11,  3.06168321E+04,
                       3.52683180E+01]),
                NASA([992.27, 5000.00],
                     [ 2.55878851E+01,  5.06718152E-02, -1.94766159E-05,
                       3.69864365E-09, -2.69824719E-13,  2.17720278E+04,
                      -1.12240478E+02])))

species(name=u'S(1161)',
        atoms='H:16 C:12',
        thermo=(NASA([100.00, 1013.91],
                     [-1.68456148E+00,  9.75829838E-02,  6.75024727E-06,
                      -7.54669033E-08,  3.43459639E-11,  1.64263299E+04,
                       3.47931908E+01]),
                NASA([1013.91, 5000.00],
                     [ 2.51858810E+01,  5.41893443E-02, -2.16834289E-05,
                       4.13524866E-09, -2.99152202E-13,  7.75908379E+03,
                      -1.11083545E+02])))

species(name=u'S(1406)',
        atoms='H:16 C:12',
        thermo=(NASA([100.00, 1117.16],
                     [-1.33582732E+00,  9.98470373E-02, -3.28892078E-05,
                      -1.68025836E-08,  1.03075131E-11,  1.91292139E+04,
                       3.62103092E+01]),
                NASA([1117.16, 5000.00],
                     [ 1.83924599E+01,  6.16949890E-02, -2.52803132E-05,
                       4.68552262E-09, -3.25869339E-13,  1.26941234E+04,
                      -7.02257787E+01])))

species(name=u'S(1515)',
        atoms='H:16 C:12',
        thermo=(NASA([100.00, 982.52],
                     [-1.98577461E+00,  1.06372496E-01, -1.86701179E-05,
                      -5.62232644E-08,  3.02698257E-11,  1.40898060E+04,
                       3.67146030E+01]),
                NASA([982.52, 5000.00],
                     [ 2.69940461E+01,  4.68058186E-02, -1.69125788E-05,
                       3.09725193E-09, -2.21699313E-13,  5.57565213E+03,
                      -1.16933624E+02])))

species(name=u'S(1617)',
        atoms='H:16 C:12',
        thermo=(NASA([100.00, 1117.16],
                     [-1.33582748E+00,  9.98470392E-02, -3.28892139E-05,
                      -1.68025762E-08,  1.03075102E-11,  1.89530872E+04,
                       3.63663077E+01]),
                NASA([1117.16, 5000.00],
                     [ 1.83924610E+01,  6.16949872E-02, -2.52803122E-05,
                       4.68552240E-09, -3.25869320E-13,  1.25179963E+04,
                      -7.00697870E+01])))

species(name=u'S(1826)',
        atoms='H:16 C:12',
        thermo=(NASA([100.00, 992.60],
                     [-2.02051020E+00,  1.08734835E-01, -2.89711942E-05,
                      -4.32763322E-08,  2.51062468E-11,  1.92512215E+04,
                       3.85793690E+01]),
                NASA([992.60, 5000.00],
                     [ 2.62576693E+01,  4.80482550E-02, -1.77622499E-05,
                       3.26163402E-09, -2.32284753E-13,  1.10132322E+04,
                      -1.10855289E+02])))

species(name=u'S(1839)',
        atoms='H:16 C:12',
        thermo=(NASA([100.00, 1083.56],
                     [-1.96915181E+00,  1.13225845E-01, -5.78496691E-05,
                      -9.73116676E-10,  7.11148013E-12,  1.95685584E+04,
                       4.06887124E+01]),
                NASA([1083.56, 5000.00],
                     [ 2.21911321E+01,  5.57420840E-02, -2.21633794E-05,
                       4.07437303E-09, -2.83429349E-13,  1.24715114E+04,
                      -8.63980874E+01])))

species(name=u'S(1861)',
        atoms='H:16 C:12',
        thermo=(NASA([100.00, 1083.56],
                     [-1.96915181E+00,  1.13225845E-01, -5.78496691E-05,
                      -9.73116676E-10,  7.11148013E-12,  1.95685584E+04,
                       4.06887124E+01]),
                NASA([1083.56, 5000.00],
                     [ 2.21911321E+01,  5.57420840E-02, -2.21633794E-05,
                       4.07437303E-09, -2.83429349E-13,  1.24715114E+04,
                      -8.63980874E+01])))

species(name=u'S(1891)',
        atoms='H:14 C:10',
        thermo=(NASA([100.00, 987.05],
                     [-3.18965676E-01,  6.52492003E-02,  6.00696681E-05,
                      -1.22790176E-07,  5.04652175E-11,  7.75586610E+03,
                       2.82508688E+01]),
                NASA([987.05, 5000.00],
                     [ 2.28910895E+01,  4.34637050E-02, -1.66558557E-05,
                       3.21427487E-09, -2.38432396E-13, -3.46650142E+02,
                      -1.01255827E+02])))

species(name=u'S(2015)',
        atoms='H:14 C:12',
        thermo=(NASA([100.00, 1637.50],
                     [-1.90241060E+00,  1.12680134E-01, -7.97562627E-05,
                       2.83662341E-08, -4.05849918E-12,  1.35491166E+04,
                       3.74003654E+01]),
                NASA([1637.50, 5000.00],
                     [ 2.57711189E+01,  4.50807182E-02, -1.78331750E-05,
                       3.15583364E-09, -2.09585671E-13,  4.48602958E+03,
                      -1.09756210E+02])))

species(name=u'S(2108)',
        atoms='H:13 C:10',
        thermo=(NASA([100.00, 980.91],
                     [ 1.94989186E-02,  6.39056173E-02,  3.92339749E-05,
                      -9.37542751E-08,  3.95449728E-11,  2.69319302E+04,
                       3.53017303E+01]),
                NASA([980.91, 5000.00],
                     [ 1.91912226E+01,  4.27942394E-02, -1.57500129E-05,
                       2.92519683E-09, -2.11274814E-13,  2.04252710E+04,
                      -7.08159040E+01])))

species(name=u'S(2244)',
        atoms='H:14 C:10',
        thermo=(NASA([100.00, 1008.40],
                     [-5.42190802E-01,  8.02242756E-02, -2.48895313E-06,
                      -5.04618867E-08,  2.39225194E-11,  1.08953963E+04,
                       3.39228880E+01]),
                NASA([1008.40, 5000.00],
                     [ 1.92806357E+01,  4.60215160E-02, -1.76984692E-05,
                       3.28342371E-09, -2.33315973E-13,  4.63862780E+03,
                      -7.30769731E+01])))

species(name=u'S(2258)',
        atoms='H:14 C:10',
        thermo=(NASA([100.00, 965.99],
                     [-6.55417014E-01,  7.63834399E-02,  2.45338171E-05,
                      -9.10458347E-08,  4.15177921E-11,  1.05807948E+04,
                       3.13471312E+01]),
                NASA([965.99, 5000.00],
                     [ 2.40861033E+01,  3.71228259E-02, -1.26234271E-05,
                       2.31505943E-09, -1.69483534E-13,  2.85253817E+03,
                      -1.02420502E+02])))

species(name=u'S(2357)',
        atoms='H:16 C:12',
        thermo=(NASA([100.00, 1125.38],
                     [-1.32759955E+00,  9.99110284E-02, -3.41131036E-05,
                      -1.50256296E-08,  9.58961071E-12,  2.03493409E+04,
                       3.86590790E+01]),
                NASA([1125.38, 5000.00],
                     [ 1.82803911E+01,  6.17728467E-02, -2.53395524E-05,
                       4.69329611E-09, -3.26019927E-13,  1.39378410E+04,
                      -6.71322252E+01])))

species(name=u'S(2582)',
        atoms='H:16 C:12',
        thermo=(NASA([100.00, 993.28],
                     [-1.35137705E+00,  9.16977968E-02,  1.24938160E-05,
                      -7.94513066E-08,  3.61313363E-11,  1.93828610E+04,
                       3.96298365E+01]),
                NASA([993.28, 5000.00],
                     [ 2.34678144E+01,  5.24020110E-02, -1.97584468E-05,
                       3.67211167E-09, -2.63243577E-13,  1.14603781E+04,
                      -9.50023084E+01])))

species(name=u'S(2688)',
        atoms='H:16 C:12',
        thermo=(NASA([100.00, 978.92],
                     [-4.00388320E-01,  6.70276624E-02,  7.34330036E-05,
                      -1.36089386E-07,  5.48530331E-11,  2.07615835E+04,
                       3.83678694E+01]),
                NASA([978.92, 5000.00],
                     [ 2.02614508E+01,  5.54194743E-02, -2.03602353E-05,
                       3.77477607E-09, -2.72263836E-13,  1.32272665E+04,
                      -7.86943180E+01])))

species(name=u'S(3073)',
        atoms='H:14 C:10',
        thermo=(NASA([100.00, 1034.52],
                     [ 9.93805853E-02,  6.69648212E-02,  2.07851553E-05,
                      -6.35172246E-08,  2.58009414E-11,  1.16761103E+04,
                       3.18895679E+01]),
                NASA([1034.52, 5000.00],
                     [ 1.50002793E+01,  5.26321955E-02, -2.11896440E-05,
                       3.97347520E-09, -2.81604997E-13,  6.27694443E+03,
                      -5.16984460E+01])))

species(name=u'S(3317)',
        atoms='H:14 C:10',
        thermo=(NASA([100.00, 989.70],
                     [ 1.16213530E-02,  5.67932191E-02,  7.99766426E-05,
                      -1.39834678E-07,  5.55098314E-11,  1.18689052E+04,
                       2.94048011E+01]),
                NASA([989.70, 5000.00],
                     [ 2.16278620E+01,  4.53301017E-02, -1.76870600E-05,
                       3.44167971E-09, -2.56032011E-13,  3.87287380E+03,
                      -9.34372510E+01])))

species(name=u'S(3554)',
        atoms='H:16 C:12',
        thermo=(NASA([100.00, 968.09],
                     [-1.96744923E+00,  1.02427933E-01,  2.99757724E-07,
                      -8.13048084E-08,  4.05078492E-11,  1.57018026E+04,
                       3.77549355E+01]),
                NASA([968.09, 5000.00],
                     [ 2.90764761E+01,  4.31575018E-02, -1.47720084E-05,
                       2.69469561E-09, -1.95816189E-13,  6.45785264E+03,
                      -1.27706527E+02])))

species(name=u'S(3626)',
        atoms='H:16 C:12',
        thermo=(NASA([100.00, 1049.01],
                     [-1.27807737E+00,  9.55417021E-02, -1.31849399E-05,
                      -4.20088090E-08,  2.02128242E-11,  2.07394050E+04,
                       3.71026937E+01]),
                NASA([1049.01, 5000.00],
                     [ 1.96607099E+01,  5.93543210E-02, -2.38629349E-05,
                       4.44855267E-09, -3.13397684E-13,  1.39444878E+04,
                      -7.63652334E+01])))

species(name=u'S(3890)',
        atoms='H:14 C:12',
        thermo=(NASA([100.00, 1549.98],
                     [-2.02938838E+00,  1.17612668E-01, -8.83383290E-05,
                       3.33669812E-08, -5.06665473E-12,  1.56786170E+04,
                       3.82662546E+01]),
                NASA([1549.98, 5000.00],
                     [ 2.59022485E+01,  4.55301824E-02, -1.85802706E-05,
                       3.36316490E-09, -2.27273001E-13,  7.01991069E+03,
                      -1.08728599E+02])))

species(name=u'S(4056)',
        atoms='H:10 C:7',
        thermo=(NASA([100.00, 978.55],
                     [ 1.83144977E+00,  2.06363349E-02,  1.08890919E-04,
                      -1.51232791E-07,  5.72826355E-11,  5.97057671E+03,
                       1.66031170E+01]),
                NASA([978.55, 5000.00],
                     [ 1.59825370E+01,  3.10964530E-02, -1.18468326E-05,
                       2.35586795E-09, -1.80193592E-13, -6.92551732E+01,
                      -6.80708888E+01])))

species(name=u'S(4385)',
        atoms='H:10 C:7',
        thermo=(NASA([100.00, 955.82],
                     [ 1.48815239E+00,  3.18444302E-02,  7.31362909E-05,
                      -1.19276583E-07,  4.82830646E-11,  8.79580288E+03,
                       2.11106153E+01]),
                NASA([955.82, 5000.00],
                     [ 1.72474758E+01,  2.46393030E-02, -7.74842595E-06,
                       1.44125128E-09, -1.09978719E-13,  3.09970252E+03,
                      -6.82445295E+01])))

species(name=u'X(1)',
        atoms='X:1',
        thermo=(NASA([100.00, 1554.80],
                     [ 7.10139498E-03, -4.25619522E-05,  8.98533016E-08,
                      -7.80193649E-11,  2.32465471E-14, -8.76101712E-01,
                      -3.11211229E-02]),
                NASA([1554.80, 5000.00],
                     [ 1.60299900E-01, -2.52235409E-04,  1.14181275E-07,
                      -1.21471653E-11,  3.85790025E-16, -7.08100885E+01,
                      -9.09527530E-01])))

species(name=u'HX(5)',
        atoms='H:1 X:1',
        thermo=(NASA([100.00, 952.91],
                     [-3.80965452E-01,  5.47228709E-03,  2.60912778E-06,
                      -9.64961980E-09,  4.63946753E-12, -3.62029043E+03,
                       1.01725550E+00]),
                NASA([952.91, 5000.00],
                     [ 2.80339655E+00, -5.41047017E-04,  4.99507978E-07,
                      -7.54963647E-11,  3.06772366E-15, -4.56103985E+03,
                      -1.59436787E+01])))

species(name=u'C2H3X(37)',