units(length='cm', time='s', quantity='mol', act_energy='kcal/mol')

ideal_gas(name='gas',
          elements="H D T C Ci O Oi N Ne Ar He Si S Cl X",
          species="""n-heptane   Ar          He          Ne
                     N2          C2H4(2)     C4H8-1(3)   C4H8-2(4)
                     C4H6(7)     C6H8(9)     C3H6(32)    H2(68)
                     C8H12(102)  C6H8(111)   S(194)      S(330)
                     S(348)      S(358)      S(385)      S(396)
                     S(893)      S(987)      C5H8(1436)  S(1460)""",
          reactions='gas-*',
          initial_state=state(temperature=300.0, pressure=OneAtm))

ideal_interface(name='surface1',
                elements="H D T C Ci O Oi N Ne Ar He Si S Cl X",
                species="""X(1)        HX(5)       C2H3X(37)   CH3X(39)
                          C4H5X(80)   C4H5X(81)   C6H9X(107)  C6H7X(142)
                          C6H7X(143)  C6H7X(144)  SX(206)     C6H7X(219)
                          SX(515)     SX(517)     SX(518)     SX(520)
                          SX(521)     SX(675)     SX(676)     SX(681)
                          SX(696)     SX(697)     SX(710)     SX(716)
                          SX(739)     SX(740)     SX(804)     SX(805)
                          SX(806)     SX(807)     SX(809)     SX(867)
                          C7H9X(883)  C5H7X(990)  SX(994)     SX(995)
                          SX(997)     SX(998)     SX(1001)    SX(1002)
                          SX(1142)    SX(1146)    SX(1148)    SX(1240)
                          SX(1242)    SX(1286)    SX(1288)    SX(1289)
                          SX(1481)    SX(1482)    SX(1484)""",
                site_density=2.72e-09,
                phases="gas",
          reactions='surface1-*',
                initial_state=state(temperature=300.0, pressure=OneAtm))

#-------------------------------------------------------------------------------
# Element data
#-------------------------------------------------------------------------------

element(symbol=u'X', atomic_mass=195.083)
element(symbol=u'Ci', atomic_mass=13.003)
element(symbol=u'D', atomic_mass=2.014)
element(symbol=u'Oi', atomic_mass=18.0)
element(symbol=u'T', atomic_mass=3.016)
#-------------------------------------------------------------------------------
# Species data
#-------------------------------------------------------------------------------

species(name=u'n-heptane',
        atoms='H:16 C:7',
        thermo=(NASA([100.00, 1262.75],
                     [-2.93512125E-03,  7.69375610E-02, -3.48031525E-05,
                       1.86160506E-09,  2.01550529E-12, -2.57829334E+04,
                       3.00312819E+01]),
                NASA([1262.75, 5000.00],
                     [ 1.38379971E+01,  4.85941816E-02, -1.95472819E-05,
                       3.52833289E-09, -2.39061569E-13, -3.05142526E+04,
                      -4.48654615E+01])))

species(name=u'Ar',
        atoms='Ar:1',
        thermo=(NASA([200.00, 1000.00],
                     [ 2.50000000E+00,  0.00000000E+00,  0.00000000E+00,
                       0.00000000E+00,  0.00000000E+00, -7.45375000E+02,
                       4.37967000E+00]),
                NASA([1000.00, 6000.00],
                     [ 2.50000000E+00,  0.00000000E+00,  0.00000000E+00,
                       0.00000000E+00,  0.00000000E+00, -7.45375000E+02,
                       4.37967000E+00])))

species(name=u'He',
        atoms='He:1',
        thermo=(NASA([200.00, 1000.00],
                     [ 2.50000000E+00,  0.00000000E+00,  0.00000000E+00,
                       0.00000000E+00,  0.00000000E+00, -7.45375000E+02,
                       9.28724000E-01]),
                NASA([1000.00, 6000.00],
                     [ 2.50000000E+00,  0.00000000E+00,  0.00000000E+00,
                       0.00000000E+00,  0.00000000E+00, -7.45375000E+02,
                       9.28724000E-01])))

species(name=u'Ne',
        atoms='Ne:1',
        thermo=(NASA([200.00, 1000.00],
                     [ 2.50000000E+00,  0.00000000E+00,  0.00000000E+00,
                       0.00000000E+00,  0.00000000E+00, -7.45375000E+02,
                       3.35532000E+00]),
                NASA([1000.00, 6000.00],
                     [ 2.50000000E+00,  0.00000000E+00,  0.00000000E+00,
                       0.00000000E+00,  0.00000000E+00, -7.45375000E+02,
                       3.35532000E+00])))

species(name=u'N2',
        atoms='N:2',
        thermo=(NASA([200.00, 1000.00],
                     [ 3.53101000E+00, -1.23661000E-04, -5.02999000E-07,
                       2.43531000E-09, -1.40881000E-12, -1.04698000E+03,
                       2.96747000E+00]),
                NASA([1000.00, 6000.00],
                     [ 2.95258000E+00,  1.39690000E-03, -4.92632000E-07,
                       7.86010000E-11, -4.60755000E-15, -9.23949000E+02,
                       5.87189000E+00])))

species(name=u'C2H4(2)',
        atoms='H:4 C:2',
        thermo=(NASA([100.00, 979.37],
                     [ 3.97469045E+00, -4.75813325E-03,  4.16772624E-05,
                      -4.51377676E-08,  1.54218287E-11,  4.91540855E+03,
                       3.62439976E+00]),
                NASA([979.37, 5000.00],
                     [ 3.55670229E+00,  1.10625819E-02, -4.17009559E-06,
                       7.85564219E-10, -5.70042086E-14,  4.32042473E+03,
                       2.17665377E+00])))

species(name=u'C4H8-1(3)',
        atoms='H:8 C:4',
        thermo=(NASA([100.00, 1007.28],
                     [ 2.58772978E+00,  2.32777883E-02,  1.93412653E-05,
                      -3.55496729E-08,  1.36906178E-11, -1.91872929E+03,
                       1.45750592E+01]),
                NASA([1007.28, 5000.00],
                     [ 7.20516863E+00,  2.36361619E-02, -9.03150325E-06,
                       1.65392736E-09, -1.16019318E-13, -3.79733809E+03,
                      -1.24426086E+01])))

species(name=u'C4H8-2(4)',
        atoms='H:8 C:4',
        thermo=(NASA([100.00, 1157.78],
                     [ 2.51999305E+00,  2.76811707E-02,  9.44135366E-07,
                      -1.25013222E-08,  4.67160311E-12, -3.34374810E+03,
                       1.30195268E+01]),
                NASA([1157.78, 5000.00],
                     [ 6.04218222E+00,  2.60073554E-02, -1.04844041E-05,
                       1.90882450E-09, -1.30601743E-13, -4.86273126E+03,
                      -7.52672501E+00])))

species(name=u'C4H6(7)',
        atoms='H:6 C:4',
        thermo=(NASA([100.00, 946.05],
                     [ 2.80594317E+00,  1.02590609E-02,  6.17237648E-05,
                      -9.01611778E-08,  3.59103084E-11,  1.16584993E+04,
                       1.20623208E+01]),
                NASA([946.05, 5000.00],
                     [ 1.24695345E+01,  1.00551088E-02, -2.41190446E-06,
                       4.57038145E-10, -3.93127871E-14,  8.01071120E+03,
                      -4.36383840E+01])))

species(name=u'C6H8(9)',
        atoms='H:8 C:6',
        thermo=(NASA([100.00, 941.22],
                     [ 1.38427839E+00,  4.14411676E-02,  1.94286778E-05,
                      -6.16687823E-08,  2.86503237E-11,  1.76317462E+04,
                       1.93257559E+01]),
                NASA([941.22, 5000.00],
                     [ 1.69619725E+01,  1.57221629E-02, -4.10117912E-06,
                       6.95735258E-10, -5.26520576E-14,  1.29061653E+04,
                      -6.44097805E+01])))

species(name=u'C3H6(32)',
        atoms='H:6 C:3',
        thermo=(NASA([100.00, 983.75],
                     [ 3.31912202E+00,  8.17957465E-03,  3.34736557E-05,
                      -4.36194260E-08,  1.58213614E-11,  7.49325285E+02,
                       9.54024700E+00]),
                NASA([983.75, 5000.00],
                     [ 5.36754789E+00,  1.70743084E-02, -6.35108004E-06,
                       1.16619619E-09, -8.27621023E-14, -4.87136723E+02,
                      -4.54465373E+00])))

species(name=u'H2(68)',
        atoms='H:2',
        thermo=(NASA([100.00, 1959.08],
                     [ 3.43536411E+00,  2.12710383E-04, -2.78625110E-07,
                       3.40267219E-10, -7.76032129E-14, -1.03135984E+03,
                      -3.90841731E+00]),
                NASA([1959.08, 5000.00],
                     [ 2.78816619E+00,  5.87640475E-04,  1.59010635E-07,
                      -5.52739465E-11,  4.34311304E-15, -5.96144481E+02,
                       1.12730527E-01])))

species(name=u'C8H12(102)',
        atoms='H:12 C:8',
        thermo=(NASA([100.00, 973.97],
                     [ 1.29311529E+00,  3.40962397E-02,  8.83341893E-05,
                      -1.34025335E-07,  5.20603305E-11,  6.25185550E+03,
                       2.49503368E+01]),
                NASA([973.97, 5000.00],
                     [ 1.61820811E+01,  3.65078554E-02, -1.32670678E-05,
                       2.52154909E-09, -1.87083983E-13,  3.36921605E+02,
                      -6.19637648E+01])))

species(name=u'C6H8(111)',
        atoms='H:8 C:6',
        thermo=(NASA([100.00, 972.94],
                     [ 1.82685810E+00,  3.47046669E-02,  2.41069029E-05,
                      -5.44846391E-08,  2.29388162E-11,  1.99100662E+04,
                       1.81393407E+01]),
                NASA([972.94, 5000.00],
                     [ 1.21686297E+01,  2.40472622E-02, -8.58150888E-06,
                       1.57033807E-09, -1.12795147E-13,  1.63897076E+04,
                      -3.92195705E+01])))

species(name=u'S(194)',
        atoms='H:16 C:12',
        thermo=(NASA([100.00, 985.43],
                     [-1.88309559E+00,  1.07042782E-01, -2.70575175E-05,
                      -4.30521591E-08,  2.47769762E-11,  4.00783515E+04,
                       4.74622652E+01]),
                NASA([985.43, 5000.00],
                     [ 2.44924173E+01,  5.06802141E-02, -1.84364732E-05,
                       3.32429337E-09, -2.33628170E-13,  3.24184482E+04,
                      -9.18874447E+01])))

species(name=u'S(330)',
        atoms='H:14 C:10',
        thermo=(NASA([100.00, 968.43],
                     [-1.78708134E-01,  6.27642744E-02,  6.13253434E-05,
                      -1.25565711E-07,  5.26234071E-11,  1.23467569E+04,
                       3.16626513E+01]),
                NASA([968.43, 5000.00],
                     [ 2.28002845E+01,  3.95485767E-02, -1.37664952E-05,
                       2.57446457E-09, -1.90682804E-13,  4.53398062E+03,
                      -9.58188782E+01])))

species(name=u'S(348)',
        atoms='H:16 C:12',
        thermo=(NASA([100.00, 983.17],
                     [-2.05095161E+00,  1.11124753E-01, -3.58400992E-05,
                      -3.59787177E-08,  2.27925508E-11,  3.98958446E+04,
                       4.68592961E+01]),
                NASA([983.17, 5000.00],
                     [ 2.52168920E+01,  4.97970922E-02, -1.79634953E-05,
                       3.22273253E-09, -2.25932210E-13,  3.21362966E+04,
                      -9.64234656E+01])))

species(name=u'S(358)',
        atoms='H:16 C:12',
        thermo=(NASA([100.00, 965.49],
                     [-1.47987726E+00,  8.73167556E-02,  4.32187218E-05,
                      -1.24336790E-07,  5.52385289E-11,  1.86240452E+04,
                       3.89679419E+01]),
                NASA([965.49, 5000.00],
                     [ 2.86820772E+01,  4.34926990E-02, -1.47505886E-05,
                       2.73170070E-09, -2.02206422E-13,  9.01821545E+03,
                      -1.25070758E+02])))

species(name=u'S(385)',
        atoms='H:16 C:12',
        thermo=(NASA([100.00, 980.77],
                     [-2.21845767E+00,  1.15202314E-01, -4.46058694E-05,
                      -2.89291868E-08,  2.08193099E-11,  3.97133228E+04,
                       4.48687956E+01]),
                NASA([980.77, 5000.00],
                     [ 2.59409239E+01,  4.89148037E-02, -1.74910308E-05,
                       3.12129858E-09, -2.18247123E-13,  3.18543053E+04,
                      -1.02343337E+02])))

species(name=u'S(396)',
        atoms='H:16 C:12',
        thermo=(NASA([100.00, 989.30],
                     [-1.49883886E+00,  8.97246983E-02,  3.13672885E-05,
                      -1.05842642E-07,  4.65441283E-11,  2.08342711E+04,
                       3.86329531E+01]),
                NASA([989.30, 5000.00],
                     [ 2.71236610E+01,  4.82438837E-02, -1.83141927E-05,
                       3.49867411E-09, -2.57485246E-13,  1.15376658E+04,
                      -1.17509419E+02])))

species(name=u'S(893)',
        atoms='H:16 C:12',
        thermo=(NASA([100.00, 977.34],
                     [-2.74602372E+00,  1.25929208E-01, -6.64336490E-05,
                      -1.47524220E-08,  1.77489038E-11,  2.62279990E+04,
                       4.47491268E+01]),
                NASA([977.34, 5000.00],
                     [ 3.01372316E+01,  4.17343413E-02, -1.45467678E-05,
                       2.60498841E-09, -1.84395162E-13,  1.73938533E+04,
                      -1.25451411E+02])))

species(name=u'S(987)',
        atoms='H:16 C:12',
        thermo=(NASA([100.00, 988.05],
                     [-9.90851137E-01,  7.49454122E-02,  7.30717883E-05,
                      -1.45587289E-07,  5.94731115E-11,  3.52111450E+04,
                       3.82245488E+01]),
                NASA([988.05, 5000.00],
                     [ 2.57485732E+01,  5.13977684E-02, -1.97704684E-05,
                       3.81940955E-09, -2.83260305E-13,  2.57925607E+04,
                      -1.11379219E+02])))

species(name=u'C5H8(1436)',
        atoms='H:8 C:5',
        thermo=(NASA([100.00, 1004.86],
                     [ 1.98272725E+00,  3.49999801E-02,  6.98463280E-06,
                      -3.05024545E-08,  1.32243753E-11,  6.96521087E+03,
                       1.60818631E+01]),
                NASA([1004.86, 5000.00],
                     [ 1.01246935E+01,  2.42323006E-02, -9.24881959E-06,
                       1.70114768E-09, -1.20058754E-13,  4.23622146E+03,
                      -2.86748669E+01])))

species(name=u'S(1460)',
        atoms='H:10 C:7',
        thermo=(NASA([100.00, 960.58],
                     [ 5.40180502E-01,  6.14551441E-02, -1.12031214E-05,
                      -3.44222691E-08,  1.91302191E-11,  1.31395193E+04,
                       2.36489208E+01]),
                NASA([960.58, 5000.00],
                     [ 1.78943629E+01,  2.43012964E-02, -8.01424779E-06,
                       1.41741257E-09, -1.01048649E-13,  8.18561272E+03,
                      -6.78088805E+01])))

species(name=u'X(1)',
        atoms='X:1',
        thermo=(NASA([100.00, 1554.81],
                     [ 7.10134880E-03, -4.25615041E-05,  8.98521156E-08,
                      -7.80182565E-11,  2.32462166E-14, -8.76099414E-01,
                      -3.11209498E-02]),
                NASA([1554.81, 5000.00],
                     [ 1.60301287E-01, -2.52237396E-04,  1.14182282E-07,
                      -1.21473809E-11,  3.85806589E-16, -7.08108147E+01,
                      -9.09535600E-01])))

species(name=u'HX(5)',
        atoms='H:1 X:1',
        thermo=(NASA([100.00, 952.91],
                     [-3.80957846E-01,  5.47219393E-03,  2.60946928E-06,
                      -9.65008412E-09,  4.63967474E-12,  7.31399096E+02,
                       1.01722845E+00]),
                NASA([952.91, 5000.00],
                     [ 2.80337105E+00, -5.41002993E-04,  4.99482316E-07,
                      -7.54902555E-11,  3.06721398E-15, -2.09339490E+02,
                      -1.59435356E+01])))

species(name=u'C2H3X(37)',
        atoms='H:3 C:2 X:1',
        thermo=(NASA([100.00, 928.60],
                     [ 3.83104022E+00, -8.76542826E-03,  6.98017027E-05,
                      -8.68052566E-08,  3.33256145E-11,  8.12782306E+03,
                      -1.81156365E+01]),
                NASA([928.60, 5000.00],
                     [ 8.78015372E+00,  1.92565992E-03,  8.25424482E-07,
                      -1.63654020E-10,  5.70926320E-15,  5.82858503E+03,
                      -4.90566656E+01])))

species(name=u'CH3X(39)',
        atoms='H:3 C:1 X:1',
        thermo=(NASA([100.00, 848.30],
                     [-1.21090611E+00,  2.92390831E-02, -4.49011672E-05,
                       3.86010689E-08, -1.30361474E-11,  4.07312006E+02,
                       6.80940157E+00]),
                NASA([848.30, 5000.00],
                     [ 1.62291116E+00,  1.12987225E-02, -5.08316650E-06,
                       9.46832954E-10, -6.42885005E-14,  9.12461161E+01,
                      -5.42502394E+00])))

species(name=u'C4H5X(80)',
        atoms='H:5 C:4 X:1',
        thermo=(NASA([100.00, 936.52],
                     [ 2.68471814E+00,  1.36244384E-02,  5.32592262E-05,
                      -8.32913017E-08,  3.41499632E-11,  1.02210587E+04,
                      -1.06510519E+01]),
                NASA([936.52, 5000.00],
                     [ 1.29012238E+01,  8.96922349E-03, -1.71920361E-06,
                       2.89745198E-10, -2.58686934E-14,  6.59802098E+03,
                      -6.83963240E+01])))

species(name=u'C4H5X(81)',
        atoms='H:5 C:4 X:1',
        thermo=(NASA([100.00, 928.62],
                     [ 2.64239936E+00,  8.31017311E-03,  8.12180670E-05,
                      -1.21403473E-07,  4.98652517E-11,  1.54039644E+04,
                      -1.03935602E+01]),
                NASA([928.62, 5000.00],
                     [ 1.69488231E+01,  2.00857887E-03,  2.03445917E-06,
                      -4.02602194E-10,  1.85354193E-14,  1.03615645E+04,
                      -9.11978215E+01])))

species(name=u'C6H9X(107)',
        atoms='H:9 C:6 X:1',
        thermo=(NASA([100.00, 995.65],
                     [ 1.00156767E+00,  5.37833423E-02, -1.05083627E-05,
                      -2.52890803E-08,  1.36191022E-11,  1.69058348E+04,
                       4.73933245E+00]),
                NASA([995.65, 5000.00],
                     [ 1.48280231E+01,  2.56880474E-02, -9.53960436E-06,
                       1.75503504E-09, -1.24934189E-13,  1.27918859E+04,
                      -6.87382183E+01])))

species(name=u'C6H7X(142)',
        atoms='H:7 C:6 X:1',
        thermo=(NASA([100.00, 921.06],
                     [ 1.31098703E+00,  3.98938896E-02,  3.32176678E-05,
                      -8.35174769E-08,  3.86291185E-11,  1.52379598E+04,
                      -3.79681512E+00]),
                NASA([921.06, 5000.00],
                     [ 1.94242456E+01,  1.10873203E-02, -1.06260774E-06,
                       6.27632967E-11, -7.94405419E-15,  9.78650273E+03,
                      -1.01173483E+02])))

species(name=u'C6H7X(143)',
        atoms='H:7 C:6 X:1',
        thermo=(NASA([100.00, 937.50],
                     [ 1.68534398E+00,  3.10727560E-02,  5.20804043E-05,
                      -9.63159071E-08,  4.10725706E-11,  1.18381403E+04,
                      -3.14969376E+00]),
                NASA([937.50, 5000.00],
                     [ 1.71062698E+01,  1.56096252E-02, -3.71085468E-06,
                       6.25094970E-10, -4.95752994E-14,  6.73481857E+03,
                      -8.83482755E+01])))

species(name=u'C6H7X(144)',
        atoms='H:7 C:6 X:1',
        thermo=(NASA([100.00, 928.32],
                     [ 1.31533986E+00,  3.68784383E-02,  4.55982789E-05,
                      -9.88748537E-08,  4.43876422E-11,  2.10256102E+04,
                      -3.00642679E+00]),
                NASA([928.32, 5000.00],
                     [ 2.11711895E+01,  8.22305277E-03, -4.16748407E-08,
                      -7.09143678E-11, -2.30023750E-15,  1.48873222E+04,
                      -1.10528035E+02])))

species(name=u'SX(206)',
        atoms='H:11 C:8 X:1',
        thermo=(NASA([100.00, 958.97],
                     [-1.29580872E-01,  7.13774021E-02, -4.26687430E-06,
                      -5.28328946E-08,  2.74203243E-11,  2.10413060E+04,
                       9.83088009E+00]),
                NASA([958.97, 5000.00],
                     [ 2.17337834E+01,  2.72644778E-02, -8.91170460E-06,
                       1.59381901E-09, -1.15613754E-13,  1.46831530E+04,
                      -1.06018841E+02])))

species(name=u'C6H7X(219)',
        atoms='H:7 C:6 X:1',
        thermo=(NASA([100.00, 945.30],
                     [ 1.76553355E+00,  3.00633278E-02,  5.04861057E-05,
                      -9.18407872E-08,  3.86733382E-11,  2.33036000E+04,
                      -4.22077117E+00]),
                NASA([945.30, 5000.00],
                     [ 1.62873747E+01,  1.66994099E-02, -4.60817474E-06,
                       8.23861477E-10, -6.41052275E-14,  1.84096802E+04,
                      -8.48270189E+01])))

species(name=u'SX(515)',
        atoms='H:13 C:10 X:1',
        thermo=(NASA([100.00, 980.08],
                     [-7.11170281E-02,  5.51559326E-02,  9.33375035E-05,
                      -1.59550350E-07,  6.38099019E-11,  1.39458431E+04,
                       9.46117342E+00]),
                NASA([980.08, 5000.00],
                     [ 2.40865697E+01,  4.15028787E-02, -1.57683709E-05,
                       3.09425014E-09, -2.34165915E-13,  5.13096806E+03,
                      -1.27412077E+02])))

species(name=u'SX(517)',
        atoms='H:15 C:12 X:1',
        thermo=(NASA([100.00, 987.58],
                     [-9.53713925E-01,  6.94572247E-02,  9.89936370E-05,
                      -1.75787432E-07,  7.03663139E-11,  1.93700988E+04,
                       1.65077313E+01]),
                NASA([987.58, 5000.00],
                     [ 2.75831421E+01,  5.08327281E-02, -1.99851684E-05,
                       3.94202632E-09, -2.96890295E-13,  9.00536864E+03,
                      -1.44748006E+02])))

species(name=u'SX(518)',
        atoms='H:15 C:12 X:1',
        thermo=(NASA([100.00, 979.07],
                     [-1.33394374E+00,  8.15321511E-02,  6.10816588E-05,
                      -1.40546765E-07,  5.96442085E-11,  2.34140929E+04,
                       1.53200353E+01]),
                NASA([979.07, 5000.00],
                     [ 2.87998835E+01,  4.54042518E-02, -1.68329162E-05,
                       3.24882631E-09, -2.43579235E-13,  1.33443955E+04,
                      -1.50711803E+02])))

species(name=u'SX(520)',
        atoms='H:15 C:12 X:1',
        thermo=(NASA([100.00, 975.89],
                     [-1.51407147E+00,  8.61130325E-02,  4.96934627E-05,
                      -1.31251591E-07,  5.71173975E-11,  2.31111771E+04,
                       1.54839709E+01]),
                NASA([975.89, 5000.00],
                     [ 2.97267739E+01,  4.33704831E-02, -1.57322822E-05,
                       3.01848761E-09, -2.26506458E-13,  1.29514417E+04,
                      -1.55285446E+02])))

species(name=u'SX(521)',
        atoms='H:15 C:12 X:1',
        thermo=(NASA([100.00, 975.89],
                     [-1.51407147E+00,  8.61130325E-02,  4.96934627E-05,
                      -1.31251591E-07,  5.71173975E-11,  2.31111771E+04,
                       1.54839709E+01]),
                NASA([975.89, 5000.00],
                     [ 2.97267739E+01,  4.33704831E-02, -1.57322822E-05,
                       3.01848761E-09, -2.26506458E-13,  1.29514417E+04,
                      -1.55285446E+02])))

species(name=u'SX(675)',
        atoms='H:15 C:12 X:1',
        thermo=(NASA([100.00, 964.55],
                     [-1.75663046E+00,  9.66637308E-02,  1.57517334E-05,
                      -9.63900725E-08,  4.56756826E-11,  1.93580578E+04,
                       1.75754826E+01]),
                NASA([964.55, 5000.00],
                     [ 2.84207995E+01,  4.39700434E-02, -1.49756932E-05,
                       2.72372936E-09, -1.97977080E-13,  1.01661973E+04,
                      -1.44394968E+02])))

species(name=u'SX(676)',
        atoms='H:15 C:12 X:1',
        thermo=(NASA([100.00, 977.07],
                     [-1.29327290E+00,  8.66756616E-02,  3.43327954E-05,
                      -1.07199136E-07,  4.72015688E-11,  2.27961091E+04,
                       1.53278090E+01]),
                NASA([977.07, 5000.00],
                     [ 2.53349806E+01,  4.91681128E-02, -1.78612793E-05,
                       3.31545729E-09, -2.40571113E-13,  1.41794293E+04,
                      -1.29986732E+02])))

species(name=u'SX(681)',
        atoms='H:15 C:12 X:1',
        thermo=(NASA([100.00, 981.43],
                     [-1.48471684E+00,  8.67536988E-02,  4.39758301E-05,
                      -1.22758291E-07,  5.34374002E-11,  2.60632990E+04,
                       1.82543460E+01]),
                NASA([981.43, 5000.00],
                     [ 2.88294588E+01,  4.48320948E-02, -1.67132908E-05,
                       3.21492777E-09, -2.39818121E-13,  1.61817689E+04,
                      -1.47454167E+02])))

species(name=u'SX(696)',
        atoms='H:15 C:12 X:1',
        thermo=(NASA([100.00, 1001.52],
                     [-1.31031108E+00,  9.26925036E-02,  4.68322337E-06,
                      -6.82412292E-08,  3.14723865E-11,  2.20568761E+04,
                       2.12825319E+01]),
                NASA([1001.52, 5000.00],
                     [ 2.20664229E+01,  5.45618757E-02, -2.09333724E-05,
                       3.87729260E-09, -2.75645300E-13,  1.46042972E+04,
                      -1.05361799E+02])))

species(name=u'SX(697)',
        atoms='H:15 C:12 X:1',
        thermo=(NASA([100.00, 977.26],
                     [-1.69892275E+00,  9.65940876E-02,  9.51350505E-06,
                      -8.60456820E-08,  4.08525589E-11,  2.56408984E+04,
                       1.79482514E+01]),
                NASA([977.26, 5000.00],
                     [ 2.75632211E+01,  4.50989847E-02, -1.62445734E-05,
                       3.01660921E-09, -2.19546136E-13,  1.66611755E+04,
                      -1.39232744E+02])))

species(name=u'SX(710)',
        atoms='H:13 C:10 X:1',
        thermo=(NASA([100.00, 974.48],
                     [-5.67932307E-01,  7.44345708E-02,  2.79660318E-05,
                      -9.21615997E-08,  4.10729392E-11,  1.72954137E+04,
                       1.12952182E+01]),
                NASA([974.48, 5000.00],
                     [ 2.33673465E+01,  3.89335501E-02, -1.39729945E-05,
                       2.60573857E-09, -1.90745932E-13,  9.65121609E+03,
                      -1.18846495E+02])))

species(name=u'SX(716)',
        atoms='H:15 C:12 X:1',
        thermo=(NASA([100.00, 977.26],
                     [-1.69892275E+00,  9.65940876E-02,  9.51350505E-06,
                      -8.60456820E-08,  4.08525589E-11,  2.80060275E+04,
                       1.72551042E+01]),
                NASA([977.26, 5000.00],
                     [ 2.75632211E+01,  4.50989847E-02, -1.62445734E-05,
                       3.01660921E-09, -2.19546136E-13,  1.90263046E+04,
                      -1.39925891E+02])))

species(name=u'SX(739)',
        atoms='H:13 C:10 X:1',
        thermo=(NASA([100.00, 989.98],
                     [ 5.08897215E-02,  5.68685558E-02,  7.82814502E-05,
                      -1.36591642E-07,  5.40677338E-11,  1.04382612E+04,
                       7.76971790E+00]),
                NASA([989.98, 5000.00],
                     [ 2.06209920E+01,  4.72481299E-02, -1.84962634E-05,
                       3.56714375E-09, -2.63090931E-13,  2.76407796E+03,
                      -1.09451121E+02])))

species(name=u'SX(740)',
        atoms='H:13 C:10 X:1',
        thermo=(NASA([100.00, 958.13],
                     [-1.99218740E-01,  5.92042143E-02,  7.95300162E-05,
                      -1.50920689E-07,  6.32275485E-11,  1.46238951E+04,
                       8.53321769E+00]),
                NASA([958.13, 5000.00],
                     [ 2.54831303E+01,  3.45434507E-02, -1.11101939E-05,
                       2.07697536E-09, -1.58285608E-13,  5.91301140E+03,
                      -1.34046130E+02])))

species(name=u'SX(804)',
        atoms='H:13 C:10 X:1',
        thermo=(NASA([100.00, 961.71],
                     [-1.97686703E-02,  5.46350985E-02,  9.08569302E-05,
                      -1.60102341E-07,  6.56886068E-11,  1.49268381E+04,
                       9.06463315E+00]),
                NASA([961.71, 5000.00],
                     [ 2.45417029E+01,  3.66008107E-02, -1.22239717E-05,
                       2.31033975E-09, -1.75604436E-13,  6.31243312E+03,
                      -1.28696821E+02])))

species(name=u'SX(805)',
        atoms='H:11 C:8 X:1',
        thermo=(NASA([100.00, 961.78],
                     [ 1.27066910E+00,  3.05623459E-02,  1.06429987E-04,
                      -1.59210559E-07,  6.25777867E-11,  8.52907523E+03,
                       1.82764055E+00]),
                NASA([961.78, 5000.00],
                     [ 1.88593017E+01,  3.15114012E-02, -1.06154016E-05,
                       2.02509197E-09, -1.54768493E-13,  1.71859910E+03,
                      -1.00158812E+02])))

species(name=u'SX(806)',
        atoms='H:13 C:10 X:1',
        thermo=(NASA([100.00, 958.13],
                     [-1.99218740E-01,  5.92042143E-02,  7.95300162E-05,
                      -1.50920689E-07,  6.32275485E-11,  1.46238951E+04,
                       8.53321769E+00]),
                NASA([958.13, 5000.00],
                     [ 2.54831303E+01,  3.45434507E-02, -1.11101939E-05,
                       2.07697536E-09, -1.58285608E-13,  5.91301140E+03,
                      -1.34046130E+02])))

species(name=u'SX(807)',
        atoms='H:13 C:10 X:1',
        thermo=(NASA([100.00, 952.15],
                     [-2.50055608E-01,  6.12169820E-02,  7.49864508E-05,
                      -1.47020104E-07,  6.23118010E-11,  9.95287908E+03,
                       7.83863545E+00]),
                NASA([952.15, 5000.00],
                     [ 2.51521725E+01,  3.50965594E-02, -1.08313528E-05,
                       1.96557928E-09, -1.47951138E-13,  1.46220669E+03,
                      -1.32651493E+02])))

species(name=u'SX(809)',
        atoms='H:13 C:10 X:1',
        thermo=(NASA([100.00, 954.16],
                     [-2.41275417E-01,  5.81407595E-02,  8.76252829E-05,