units(length='cm', time='s', quantity='mol', act_energy='kcal/mol')

ideal_gas(name='gas',
          elements="H D T C Ci O Oi N Ne Ar He Si S Cl X",
          species="""n-heptane   Ar          He          Ne
                     N2          C2H4(2)     C4H8-1(3)   C4H8-2(4)
                     C4H6(7)     C6H8(9)     C5H6(18)    C4H6a(79)
                     C6H10d(84)  C8H10(113)  C6H9(136)   S(163)
                     S(181)      S(185)      S(189)      S(244)
                     S(264)      S(301)      S(518)      C6H10(651)
                     C8H12(652)  S(655)      S(659)      C8H11(899)
                     S(937)      S(944)      S(947)      S(1402)
                     S(1679)     S(2197)     S(2273)     C2H6(2950)
                     S(3950)     S(4238)     S(4360)     S(4473)
                     S(4729)     S(4843)     S(4968)     S(5358)""",
          reactions='gas-*',
          initial_state=state(temperature=300.0, pressure=OneAtm))

ideal_interface(name='surface1',
                elements="H D T C Ci O Oi N Ne Ar He Si S Cl X",
                species="""X(1)        HX(5)       C2H3X(37)   C2H5X(40)
                          C4H5X(80)   C4H5X(81)   C6H9X(159)  SX(160)
                          C6H9X(192)  SX(197)     SX(198)     SX(407)
                          SX(409)     SX(410)     SX(411)     SX(412)
                          SX(413)     SX(414)     SX(415)     SX(417)
                          SX(418)     SX(419)     SX(420)     SX(706)
                          SX(708)     SX(711)     SX(930)     SX(931)
                          SX(972)     SX(999)     SX(1009)    SX(1010)
                          SX(1011)    SX(1559)    SX(1563)    SX(1649)
                          SX(1846)    SX(1848)    SX(2051)    SX(2055)
                          SX(2077)    SX(2078)    SX(2081)    SX(2082)
                          SX(2085)    SX(2086)    SX(2087)    SX(2091)
                          SX(2092)    SX(2097)    SX(2098)    SX(2099)
                          SX(2106)    SX(2107)    SX(2108)    SX(2111)
                          SX(2112)    SX(2118)    SX(2158)    SX(2159)
                          SX(2166)    SX(2167)    SX(2170)    SX(2195)
                          SX(2196)    SX(2201)    SX(2202)    SX(2203)
                          SX(2204)    SX(2209)    SX(2210)    SX(2211)
                          SX(2212)    SX(2215)    SX(2216)    SX(2217)
                          SX(2222)    SX(2223)    SX(2256)    SX(2378)
                          SX(2379)    SX(2382)    SX(2383)    SX(2384)
                          SX(2386)    SX(2390)    SX(2391)    SX(2392)
                          SX(2396)    SX(2401)    SX(2414)    SX(2473)
                          SX(2476)    SX(2477)    SX(2637)    SX(2652)
                          SX(2653)    SX(2676)    SX(2678)    SX(2690)
                          SX(2691)    SX(2714)    SX(2727)    SX(2762)
                          SX(2765)    SX(2766)    SX(2768)    SX(2769)
                          SX(2772)    SX(2874)    SX(2875)    SX(2878)
                          SX(2916)    SX(2917)    SX(2918)    SX(2921)
                          SX(2922)    SX(2926)    SX(3054)    SX(3059)
                          SX(3065)    SX(3066)    SX(3167)    SX(3178)
                          SX(3179)    SX(3180)    SX(3186)    SX(3187)
                          SX(3188)    SX(3200)    SX(3213)    SX(3214)
                          SX(3226)    SX(3227)    SX(3234)    SX(3235)
                          SX(3247)    SX(3248)    SX(3257)    SX(3258)
                          SX(3275)    SX(3277)    SX(3298)    SX(3299)
                          SX(3304)    SX(3305)    SX(3306)    SX(3307)
                          SX(3318)    SX(3325)    SX(3331)    SX(3343)
                          SX(3364)    SX(3374)    SX(3386)    SX(3412)
                          SX(3413)    SX(3423)    SX(3430)    SX(3436)
                          SX(3447)    SX(3448)    SX(3449)    SX(3454)
                          SX(3455)    SX(3456)    SX(3457)    SX(3461)
                          SX(3462)    SX(3463)    SX(3483)    SX(3484)
                          SX(3491)    SX(3492)    SX(3497)    SX(3498)
                          SX(3507)    SX(3508)    SX(3521)    SX(3522)
                          SX(3569)    SX(3699)    SX(3708)    SX(3709)
                          SX(3711)    SX(4120)    SX(4121)    SX(4137)
                          SX(4633)    SX(4640)    SX(4653)    SX(4654)
                          SX(4662)    SX(4663)    SX(4689)    SX(4690)
                          SX(4838)    SX(4845)    SX(4848)    SX(5159)
                          SX(5160)    SX(5161)    SX(5325)    SX(5328)""",
                site_density=2.72e-09,
                phases="gas",
          reactions='surface1-*',
                initial_state=state(temperature=300.0, pressure=OneAtm))

#-------------------------------------------------------------------------------
# Element data
#-------------------------------------------------------------------------------

element(symbol=u'X', atomic_mass=195.083)
element(symbol=u'Ci', atomic_mass=13.003)
element(symbol=u'D', atomic_mass=2.014)
element(symbol=u'Oi', atomic_mass=18.0)
element(symbol=u'T', atomic_mass=3.016)
#-------------------------------------------------------------------------------
# Species data
#-------------------------------------------------------------------------------

species(name=u'n-heptane',
        atoms='H:16 C:7',
        thermo=(NASA([100.00, 1262.73],
                     [-2.91681405E-03,  7.69373649E-02, -3.48025563E-05,
                       1.86095180E-09,  2.01573617E-12, -2.57829342E+04,
                       3.00312148E+01]),
                NASA([1262.73, 5000.00],
                     [ 1.38377915E+01,  4.85945016E-02, -1.95474548E-05,
                       3.52837178E-09, -2.39064676E-13, -3.05141556E+04,
                      -4.48642836E+01])))

species(name=u'Ar',
        atoms='Ar:1',
        thermo=(NASA([200.00, 1000.00],
                     [ 2.50000000E+00,  0.00000000E+00,  0.00000000E+00,
                       0.00000000E+00,  0.00000000E+00, -7.45375000E+02,
                       4.37967000E+00]),
                NASA([1000.00, 6000.00],
                     [ 2.50000000E+00,  0.00000000E+00,  0.00000000E+00,
                       0.00000000E+00,  0.00000000E+00, -7.45375000E+02,
                       4.37967000E+00])))

species(name=u'He',
        atoms='He:1',
        thermo=(NASA([200.00, 1000.00],
                     [ 2.50000000E+00,  0.00000000E+00,  0.00000000E+00,
                       0.00000000E+00,  0.00000000E+00, -7.45375000E+02,
                       9.28724000E-01]),
                NASA([1000.00, 6000.00],
                     [ 2.50000000E+00,  0.00000000E+00,  0.00000000E+00,
                       0.00000000E+00,  0.00000000E+00, -7.45375000E+02,
                       9.28724000E-01])))

species(name=u'Ne',
        atoms='Ne:1',
        thermo=(NASA([200.00, 1000.00],
                     [ 2.50000000E+00,  0.00000000E+00,  0.00000000E+00,
                       0.00000000E+00,  0.00000000E+00, -7.45375000E+02,
                       3.35532000E+00]),
                NASA([1000.00, 6000.00],
                     [ 2.50000000E+00,  0.00000000E+00,  0.00000000E+00,
                       0.00000000E+00,  0.00000000E+00, -7.45375000E+02,
                       3.35532000E+00])))

species(name=u'N2',
        atoms='N:2',
        thermo=(NASA([200.00, 1000.00],
                     [ 3.53101000E+00, -1.23661000E-04, -5.02999000E-07,
                       2.43531000E-09, -1.40881000E-12, -1.04698000E+03,
                       2.96747000E+00]),
                NASA([1000.00, 6000.00],
                     [ 2.95258000E+00,  1.39690000E-03, -4.92632000E-07,
                       7.86010000E-11, -4.60755000E-15, -9.23949000E+02,
                       5.87189000E+00])))

species(name=u'C2H4(2)',
        atoms='H:4 C:2',
        thermo=(NASA([100.00, 979.36],
                     [ 3.97471606E+00, -4.75844285E-03,  4.16783770E-05,
                      -4.51392516E-08,  1.54224761E-11,  4.91540746E+03,
                       3.62430844E+00]),
                NASA([979.36, 5000.00],
                     [ 3.55660610E+00,  1.10627464E-02, -4.17019079E-06,
                       7.85586770E-10, -5.70060829E-14,  4.32046489E+03,
                       2.17719479E+00])))

species(name=u'C4H8-1(3)',
        atoms='H:8 C:4',
        thermo=(NASA([100.00, 1007.28],
                     [ 2.58772906E+00,  2.32777969E-02,  1.93412349E-05,
                      -3.55496333E-08,  1.36906009E-11, -1.91872926E+03,
                       1.45750618E+01]),
                NASA([1007.28, 5000.00],
                     [ 7.20517168E+00,  2.36361568E-02, -9.03150028E-06,
                       1.65392666E-09, -1.16019260E-13, -3.79733937E+03,
                      -1.24426257E+01])))

species(name=u'C4H8-2(4)',
        atoms='H:8 C:4',
        thermo=(NASA([100.00, 1157.79],
                     [ 2.51998327E+00,  2.76812799E-02,  9.43783469E-07,
                      -1.25009101E-08,  4.67144666E-12, -3.34374767E+03,
                       1.30195623E+01]),
                NASA([1157.79, 5000.00],
                     [ 6.04225708E+00,  2.60072350E-02, -1.04843374E-05,
                       1.90880922E-09, -1.30600505E-13, -4.86276511E+03,
                      -7.52715109E+00])))

species(name=u'C4H6(7)',
        atoms='H:6 C:4',
        thermo=(NASA([100.00, 946.05],
                     [ 2.80599310E+00,  1.02584471E-02,  6.17260255E-05,
                      -9.01642687E-08,  3.59116961E-11,  1.16584972E+04,
                       1.20621434E+01]),
                NASA([946.05, 5000.00],
                     [ 1.24693720E+01,  1.00553901E-02, -2.41206872E-06,
                       4.57077303E-10, -3.93160571E-14,  8.01077795E+03,
                      -4.36374720E+01])))

species(name=u'C6H8(9)',
        atoms='H:8 C:6',
        thermo=(NASA([100.00, 941.22],
                     [ 1.38427980E+00,  4.14411503E-02,  1.94287417E-05,
                      -6.16688700E-08,  2.86503633E-11,  1.76317461E+04,
                       1.93257509E+01]),
                NASA([941.22, 5000.00],
                     [ 1.69619680E+01,  1.57221707E-02, -4.10118367E-06,
                       6.95736344E-10, -5.26521484E-14,  1.29061672E+04,
                      -6.44097553E+01])))

species(name=u'C5H6(18)',
        atoms='H:6 C:5',
        thermo=(NASA([100.00, 947.12],
                     [ 3.00694403E+00,  1.49951852E-03,  9.70005180E-05,
                      -1.27800014E-07,  4.91203074E-11,  1.45638924E+04,
                       1.21161952E+01]),
                NASA([947.12, 5000.00],
                     [ 1.26018997E+01,  1.28860510E-02, -3.24387145E-06,
                       6.28094206E-10, -5.38400017E-14,  1.04181524E+04,
                      -4.59436988E+01])))

species(name=u'C4H6a(79)',
        atoms='H:6 C:4',
        thermo=(NASA([100.00, 950.38],
                     [ 3.41327601E+00, -4.60830638E-03,  9.57205603E-05,
                      -1.18800574E-07,  4.44495312E-11,  1.74039828E+04,
                       1.01517556E+01]),
                NASA([950.38, 5000.00],
                     [ 9.72156091E+00,  1.36879055E-02, -3.93842260E-06,
                       7.58710118E-10, -6.16013131E-14,  1.41795804E+04,
                      -3.06164436E+01])))

species(name=u'C6H10d(84)',
        atoms='H:10 C:6',
        thermo=(NASA([100.00, 969.70],
                     [ 2.39493639E+00,  1.31308716E-02,  1.02019898E-04,
                      -1.35266841E-07,  5.06735576E-11, -2.55363631E+03,
                       1.63461006E+01]),
                NASA([969.70, 5000.00],
                     [ 1.20193596E+01,  2.96991246E-02, -1.06504175E-05,
                       2.03502649E-09, -1.52378829E-13, -7.06570658E+03,
                      -4.34309725E+01])))

species(name=u'C8H10(113)',
        atoms='H:10 C:8',
        thermo=(NASA([100.00, 941.38],
                     [ 8.64508879E-02,  6.59507123E-02,  1.49007776E-06,
                      -6.06862449E-08,  3.13845046E-11,  2.39088929E+04,
                       2.66192822E+01]),
                NASA([941.38, 5000.00],
                     [ 2.28417755E+01,  1.96704891E-02, -5.08803462E-06,
                       8.53682038E-10, -6.42382395E-14,  1.73909786E+04,
                      -9.36509497E+01])))

species(name=u'C6H9(136)',
        atoms='H:9 C:6',
        thermo=(NASA([100.00, 995.34],
                     [ 1.62522454E+00,  3.93401586E-02,  1.78978273E-05,
                      -4.78993847E-08,  2.01402388E-11,  1.69431093E+04,
                       2.25224222E+01]),
                NASA([995.34, 5000.00],
                     [ 1.22021413E+01,  2.74567638E-02, -1.03424270E-05,
                       1.92565312E-09, -1.38069748E-13,  1.33207104E+04,
                      -3.60755769E+01])))

species(name=u'S(163)',
        atoms='H:14 C:10',
        thermo=(NASA([100.00, 1005.33],
                     [-8.70330413E-01,  8.89793335E-02, -2.38552724E-05,
                      -3.15628111E-08,  1.81664076E-11,  3.78335548E+04,
                       4.06086741E+01]),
                NASA([1005.33, 5000.00],
                     [ 2.02610588E+01,  4.45995858E-02, -1.68699763E-05,
                       3.08363695E-09, -2.16972192E-13,  3.15786714E+04,
                      -7.14276628E+01])))

species(name=u'S(181)',
        atoms='H:16 C:12',
        thermo=(NASA([100.00, 985.43],
                     [-1.88304682E+00,  1.07042194E-01, -2.70554103E-05,
                      -4.30549514E-08,  2.47781880E-11,  4.00783494E+04,
                       4.74620913E+01]),
                NASA([985.43, 5000.00],
                     [ 2.44922294E+01,  5.06805346E-02, -1.84366585E-05,
                       3.32433721E-09, -2.33631810E-13,  3.24185269E+04,
                      -9.18863874E+01])))

species(name=u'S(185)',
        atoms='H:16 C:12',
        thermo=(NASA([100.00, 992.45],
                     [-1.36726188E+00,  9.09276671E-02,  1.69902518E-05,
                      -8.53947805E-08,  3.84301239E-11,  2.11993195E+04,
                       3.87738109E+01]),
                NASA([992.45, 5000.00],
                     [ 2.42201531E+01,  5.14040751E-02, -1.94056379E-05,
                       3.62910452E-09, -2.61722320E-13,  1.29880616E+04,
                      -1.00257920E+02])))

species(name=u'S(189)',
        atoms='H:16 C:12',
        thermo=(NASA([100.00, 961.97],
                     [-1.50816176E+00,  8.75229397E-02,  4.32196782E-05,
                      -1.26059866E-07,  5.63926918E-11,  3.17299871E+04,
                       4.22614545E+01]),
                NASA([961.97, 5000.00],
                     [ 2.93787122E+01,  4.15661279E-02, -1.37239862E-05,
                       2.52954162E-09, -1.88135179E-13,  2.19715065E+04,
                      -1.25386845E+02])))

species(name=u'S(244)',
        atoms='H:16 C:12',
        thermo=(NASA([100.00, 1082.71],
                     [-1.42165646E+00,  1.00366054E-01, -2.86690015E-05,
                      -2.45430021E-08,  1.37134617E-11,  2.67269131E+04,
                       3.45501008E+01]),
                NASA([1082.71, 5000.00],
                     [ 1.94956582E+01,  6.02181764E-02, -2.44875026E-05,
                       4.55572743E-09, -3.18938634E-13,  2.00211421E+04,
                      -7.80762928E+01])))

species(name=u'S(264)',
        atoms='H:16 C:12',
        thermo=(NASA([100.00, 967.86],
                     [-1.32209228E+00,  8.47378361E-02,  4.59787499E-05,
                      -1.23781967E-07,  5.42497769E-11,  2.23199283E+04,
                       3.57020946E+01]),
                NASA([967.86, 5000.00],
                     [ 2.71811605E+01,  4.57697461E-02, -1.58000646E-05,
                       2.92345730E-09, -2.14846023E-13,  1.31102045E+04,
                      -1.19952912E+02])))

species(name=u'S(301)',
        atoms='H:15 C:12',
        thermo=(NASA([100.00, 993.54],
                     [-1.21346258E+00,  8.43526020E-02,  3.95110756E-05,
                      -1.09218661E-07,  4.65596299E-11,  3.07992502E+04,
                       3.58638913E+01]),
                NASA([993.54, 5000.00],
                     [ 2.48582341E+01,  5.15640076E-02, -1.99549339E-05,
                       3.80148454E-09, -2.77628001E-13,  2.20562691E+04,
                      -1.07675478E+02])))

species(name=u'S(518)',
        atoms='H:16 C:12',
        thermo=(NASA([100.00, 986.81],
                     [-1.58942639E+00,  9.66108811E-02,  4.38238808E-06,
                      -7.51919667E-08,  3.56680424E-11,  2.22579493E+04,
                       3.42763923E+01]),
                NASA([986.81, 5000.00],
                     [ 2.50352801E+01,  5.01811066E-02, -1.85129907E-05,
                       3.42197162E-09, -2.45594998E-13,  1.40091654E+04,
                      -1.08989338E+02])))

species(name=u'C6H10(651)',
        atoms='H:10 C:6',
        thermo=(NASA([100.00, 1020.63],
                     [ 9.97427413E-01,  5.59777045E-02, -2.05880600E-05,
                      -1.17182304E-08,  8.13452041E-12,  6.30749855E+03,
                       2.38941836E+01]),
                NASA([1020.63, 5000.00],
                     [ 1.33828218E+01,  2.83661253E-02, -1.07663110E-05,
                       1.95749020E-09, -1.36589418E-13,  2.68926840E+03,
                      -4.14511818E+01])))

species(name=u'C8H12(652)',
        atoms='H:12 C:8',
        thermo=(NASA([100.00, 1002.94],
                     [ 1.69489980E-02,  7.28189377E-02, -2.16585698E-05,
                      -2.40807783E-08,  1.44597041E-11,  1.38562447E+04,
                       3.07679077E+01]),
                NASA([1002.94, 5000.00],
                     [ 1.77276883E+01,  3.45993801E-02, -1.29781828E-05,
                       2.37500136E-09, -1.67643536E-13,  8.67334638E+03,
                      -6.28559377E+01])))

species(name=u'S(655)',
        atoms='H:14 C:10',
        thermo=(NASA([100.00, 988.70],
                     [-1.28102885E+00,  9.73401935E-02, -3.96908570E-05,
                      -2.28883979E-08,  1.70599250E-11,  2.01333918E+04,
                       3.80613736E+01]),
                NASA([988.70, 5000.00],
                     [ 2.35618068E+01,  3.86218834E-02, -1.40063814E-05,
                       2.54246809E-09, -1.80004061E-13,  1.31784885E+04,
                      -9.18377566E+01])))

species(name=u'S(659)',
        atoms='H:14 C:10',
        thermo=(NASA([100.00, 986.06],
                     [-1.44909215E+00,  1.01424899E-01, -4.84844562E-05,
                      -1.57983685E-08,  1.50673204E-11,  1.99508936E+04,
                       3.67659825E+01]),
                NASA([986.06, 5000.00],
                     [ 2.42859453E+01,  3.77392366E-02, -1.35336379E-05,
                       2.44095589E-09, -1.72311717E-13,  1.28965094E+04,
                      -9.70649724E+01])))

species(name=u'C8H11(899)',
        atoms='H:11 C:8',
        thermo=(NASA([100.00, 963.38],
                     [ 3.22493249E-01,  6.42731774E-02, -5.26621565E-07,
                      -4.79928404E-08,  2.39568848E-11,  2.32032772E+04,
                       2.89994585E+01]),
                NASA([963.38, 5000.00],
                     [ 1.79964989E+01,  3.07733805E-02, -1.04664727E-05,
                       1.85925265E-09, -1.31719885E-13,  1.79471317E+04,
                      -6.52137579E+01])))

species(name=u'S(937)',
        atoms='H:16 C:12',
        thermo=(NASA([100.00, 992.69],
                     [-2.16821098E+00,  1.13500613E-01, -4.18937515E-05,
                      -3.03524070E-08,  2.07540517E-11,  4.41106970E+04,
                       4.79017194E+01]),
                NASA([992.69, 5000.00],
                     [ 2.60887848E+01,  4.86324276E-02, -1.79039207E-05,
                       3.25242392E-09, -2.29439930E-13,  3.60866742E+04,
                      -1.00373160E+02])))

species(name=u'S(944)',
        atoms='H:16 C:12',
        thermo=(NASA([100.00, 992.45],
                     [-1.36726188E+00,  9.09276671E-02,  1.69902518E-05,
                      -8.53947805E-08,  3.84301239E-11,  2.11993195E+04,
                       3.87738109E+01]),
                NASA([992.45, 5000.00],
                     [ 2.42201531E+01,  5.14040751E-02, -1.94056379E-05,
                       3.62910452E-09, -2.61722320E-13,  1.29880616E+04,
                      -1.00257920E+02])))

species(name=u'S(947)',
        atoms='H:16 C:12',
        thermo=(NASA([100.00, 967.03],
                     [-1.31139837E+00,  8.32287582E-02,  5.20151204E-05,
                      -1.31415519E-07,  5.72186862E-11,  1.88065247E+04,
                       3.95685998E+01]),
                NASA([967.03, 5000.00],
                     [ 2.79480815E+01,  4.43915206E-02, -1.52324201E-05,
                       2.83531855E-09, -2.10070864E-13,  9.30452597E+03,
                      -1.20480836E+02])))

species(name=u'S(1402)',
        atoms='H:16 C:12',
        thermo=(NASA([100.00, 995.36],
                     [-1.38075117E+00,  9.24683015E-02,  1.08518849E-05,
                      -7.76445350E-08,  3.54197768E-11,  2.47128441E+04,
                       3.49174086E+01]),
                NASA([995.36, 5000.00],
                     [ 2.34747752E+01,  5.27464139E-02, -1.99528912E-05,
                       3.71247862E-09, -2.66105517E-13,  1.67844433E+04,
                      -9.98517432E+01])))

species(name=u'S(1679)',
        atoms='H:18 C:12',
        thermo=(NASA([100.00, 1183.01],
                     [-2.53283774E+00,  1.24563561E-01, -7.48446159E-05,
                       1.43080125E-08,  1.57339720E-12,  1.93202856E+04,
                       4.92535822E+01]),
                NASA([1183.01, 5000.00],
                     [ 2.48095995E+01,  5.83453497E-02, -2.41442393E-05,
                       4.48039678E-09, -3.10813001E-13,  1.10153952E+04,
                      -9.50113354E+01])))

species(name=u'S(2197)',
        atoms='H:15 C:12',
        thermo=(NASA([100.00, 993.54],
                     [-1.21346258E+00,  8.43526020E-02,  3.95110756E-05,
                      -1.09218661E-07,  4.65596299E-11,  3.07992502E+04,
                       3.58638913E+01]),
                NASA([993.54, 5000.00],
                     [ 2.48582341E+01,  5.15640076E-02, -1.99549339E-05,
                       3.80148454E-09, -2.77628001E-13,  2.20562691E+04,
                      -1.07675478E+02])))

species(name=u'S(2273)',
        atoms='H:16 C:10',
        thermo=(NASA([100.00, 1025.84],
                     [-1.24619703E+00,  9.72808915E-02, -3.52285872E-05,
                      -2.14929919E-08,  1.45299986E-11,  7.41366698E+03,
                       4.07519606E+01]),
                NASA([1025.84, 5000.00],
                     [ 2.09282520E+01,  4.83786266E-02, -1.86452358E-05,
                       3.42223986E-09, -2.40159228E-13,  8.87786276E+02,
                      -7.64256592E+01])))

species(name=u'C2H6(2950)',
        atoms='H:6 C:2',
        thermo=(NASA([100.00, 1012.42],
                     [ 3.72239291E+00,  1.65083841E-03,  3.44175530E-05,
                      -3.76858229E-08,  1.24450657E-11, -1.15575901E+04,
                       4.68247999E+00]),
                NASA([1012.42, 5000.00],
                     [ 2.82848257E+00,  1.73040568E-02, -6.73334245E-06,
                       1.23742024E-09, -8.65676410E-14, -1.19978080E+04,
                       5.93811707E+00])))

species(name=u'S(3950)',
        atoms='H:16 C:12',
        thermo=(NASA([100.00, 960.50],
                     [-1.70057280E+00,  9.29752092E-02,  3.07366952E-05,
                      -1.14362592E-07,  5.26068008E-11,  1.96826161E+04,
                       3.44657052E+01]),
                NASA([960.50, 5000.00],
                     [ 2.95255738E+01,  4.22239513E-02, -1.38325464E-05,
                       2.51874141E-09, -1.85606530E-13,  1.00266071E+04,
                      -1.33963392E+02])))

species(name=u'S(4238)',
        atoms='H:16 C:12',
        thermo=(NASA([100.00, 985.09],
                     [-1.75827122E+00,  1.00704896E-01, -4.44402128E-06,
                      -6.80593883E-08,  3.36574287E-11,  2.20754846E+04,
                       3.36769437E+01]),
                NASA([985.09, 5000.00],
                     [ 2.57629599E+01,  4.92924651E-02, -1.80368013E-05,
                       3.31964736E-09, -2.37835419E-13,  1.37256886E+04,
                      -1.13543362E+02])))

species(name=u'S(4360)',
        atoms='H:16 C:12',
        thermo=(NASA([100.00, 977.65],
                     [-1.26030227E+00,  8.62556301E-02,  3.54127882E-05,
                      -1.07276104E-07,  4.69896899E-11,  2.19610399E+04,
                       3.32881731E+01]),
                NASA([977.65, 5000.00],
                     [ 2.47916538E+01,  5.04509173E-02, -1.82574767E-05,
                       3.38046286E-09, -2.44693941E-13,  1.34842589E+04,
                      -1.09109450E+02])))

species(name=u'S(4473)',
        atoms='H:16 C:12',
        thermo=(NASA([100.00, 991.70],
                     [ 1.64598798E-01,  5.26282254E-02,  1.08722470E-04,
                      -1.64653923E-07,  6.25047242E-11,  2.44462163E+04,
                       3.36330283E+01]),
                NASA([991.70, 5000.00],
                     [ 1.74951735E+01,  6.14817008E-02, -2.37914872E-05,
                       4.50777487E-09, -3.27112624E-13,  1.71361658E+04,
                      -6.93581109E+01])))

species(name=u'S(4729)',
        atoms='H:16 C:10',
        thermo=(NASA([100.00, 1110.57],
                     [-1.31182993E+00,  1.01392612E-01, -5.47815220E-05,
                       4.19587454E-09,  4.19040517E-12,  6.89929243E+03,
                       4.08003602E+01]),
                NASA([1110.57, 5000.00],
                     [ 1.96559825E+01,  5.08422036E-02, -2.02319568E-05,
                       3.70202395E-09, -2.56010860E-13,  7.02166741E+02,
                      -6.94890354E+01])))

species(name=u'S(4843)',
        atoms='H:14 C:12',
        thermo=(NASA([100.00, 1009.57],
                     [-1.50189696E+00,  9.96540079E-02, -2.66542283E-05,
                      -3.68343295E-08,  2.10660674E-11,  2.74396300E+04,
                       3.74543775E+01]),
                NASA([1009.57, 5000.00],
                     [ 2.35377200E+01,  4.71694118E-02, -1.80961845E-05,
                       3.35757855E-09, -2.38865454E-13,  2.00026392E+04,
                      -9.53786644E+01])))

species(name=u'S(4968)',
        atoms='H:14 C:12',
        thermo=(NASA([100.00, 982.77],
                     [-1.32701959E+00,  9.12372686E-02,  4.18854988E-06,
                      -7.37782558E-08,  3.53646840E-11,  2.72432864E+04,
                       3.92280217E+01]),
                NASA([982.77, 5000.00],
                     [ 2.54109966E+01,  4.33882674E-02, -1.58501521E-05,
                       2.94972909E-09, -2.13939946E-13,  1.90430652E+04,
                      -1.04284639E+02])))

species(name=u'S(5358)',
        atoms='H:18 C:12',
        thermo=(NASA([100.00, 1059.33],
                     [-2.59301329E+00,  1.25767829E-01, -7.25613949E-05,
                       5.45620611E-09,  6.58191958E-12,  1.31756568E+04,
                       4.80302704E+01]),
                NASA([1059.33, 5000.00],
                     [ 2.51042651E+01,  5.54803637E-02, -2.15989312E-05,
                       3.94675681E-09, -2.74610332E-13,  5.38319788E+03,
                      -9.62723272E+01])))

species(name=u'X(1)',
        atoms='X:1',
        thermo=(NASA([100.00, 1554.80],
                     [ 7.10139498E-03, -4.25619522E-05,  8.98533016E-08,
                      -7.80193649E-11,  2.32465471E-14, -8.76101712E-01,
                      -3.11211229E-02]),
                NASA([1554.80, 5000.00],
                     [ 1.60299900E-01, -2.52235409E-04,  1.14181275E-07,
                      -1.21471653E-11,  3.85790025E-16, -7.08100885E+01,
                      -9.09527530E-01])))

species(name=u'HX(5)',
        atoms='H:1 X:1',
        thermo=(NASA([100.00, 952.91],
                     [-3.80965452E-01,  5.47228709E-03,  2.60912778E-06,
                      -9.64961980E-09,  4.63946753E-12, -9.42254356E+03,
                       1.01725550E+00]),
                NASA([952.91, 5000.00],
                     [ 2.80339655E+00, -5.41047017E-04,  4.99507978E-07,
                      -7.54963647E-11,  3.06772366E-15, -1.03632930E+04,
                      -1.59436787E+01])))

species(name=u'C2H3X(37)',
        atoms='H:3 C:2 X:1',
        thermo=(NASA([100.00, 928.62],
                     [ 3.83091018E+00, -8.76381562E-03,  6.97956896E-05,
                      -8.67969174E-08,  3.33218121E-11,  5.22670203E+03,
                      -1.81151753E+01]),
                NASA([928.62, 5000.00],
                     [ 8.78054562E+00,  1.92497720E-03,  8.25825014E-07,
                      -1.63749818E-10,  5.71728318E-15,  2.92729890E+03,
                      -4.90588618E+01])))

species(name=u'C2H5X(40)',
        atoms='H:5 C:2 X:1',
        thermo=(NASA([100.00, 803.81],
                     [-1.64625424E+00,  3.89626488E-02, -4.31128887E-05,
                       2.97076939E-08, -8.80222915E-12, -6.47748963E+03,
                       9.27323637E+00]),
                NASA([803.81, 5000.00],
                     [ 1.97598112E+00,  2.09382766E-02, -9.47916922E-06,
                       1.81392948E-09, -1.27206354E-13, -7.05983841E+03,
                      -7.41107956E+00])))

species(name=u'C4H5X(80)',
        atoms='H:5 C:4 X:1',
        thermo=(NASA([100.00, 936.52],
                     [ 2.68471723E+00,  1.36244496E-02,  5.32591849E-05,
                      -8.32912448E-08,  3.41499374E-11,  7.31993221E+03,