units(length='cm', time='s', quantity='mol', act_energy='kcal/mol')

ideal_gas(name='gas',
          elements="H D T C Ci O Oi N Ne Ar He Si S Cl X",
          species="""n-heptane   Ar          He          Ne
                     N2          C2H4(2)     C4H8-1(3)   C4H8-2(4)
                     C4H6(7)     H2(68)      C6H8(111)   C8H10(114)
                     S(192)      S(203)      S(281)      C8H10(315)
                     C8H11(321)  S(384)      S(429)      S(604)
                     S(697)      S(775)      S(812)      S(882)
                     S(1008)     S(1103)     S(1153)     S(1252)
                     S(1506)     S(1510)     S(1581)     S(1582)
                     S(1856)     S(1934)     S(2132)     S(2338)
                     S(2479)     S(2606)     S(2803)     S(2947)
                     S(3039)     S(3061)     S(3101)""",
          reactions='gas-*',
          initial_state=state(temperature=300.0, pressure=OneAtm))

ideal_interface(name='surface1',
                elements="H D T C Ci O Oi N Ne Ar He Si S Cl X",
                species="""X(1)        HX(5)       C2H3X(37)   C4H5X(80)
                          C4H5X(81)   C6H7X(132)  C6H7X(134)  C8H9X(316)
                          SX(354)     SX(445)     SX(448)     SX(450)
                          SX(452)     SX(829)     SX(832)     SX(833)
                          SX(867)     SX(868)     SX(871)     SX(927)
                          SX(929)     SX(967)     SX(970)     SX(1027)
                          SX(1028)    SX(1029)    SX(1125)    SX(1129)
                          SX(1147)    SX(1202)    SX(1207)    SX(1351)
                          SX(1353)    SX(1355)    SX(1357)    SX(1450)
                          SX(1602)    SX(1714)    SX(1928)    SX(1932)
                          SX(1994)    SX(2219)    SX(2225)    SX(2303)
                          SX(2305)    SX(2323)    SX(2331)    SX(2529)
                          SX(2531)    SX(2572)    SX(2623)    SX(2690)
                          SX(2724)    SX(2767)    SX(2942)    SX(2946)
                          SX(3093)    SX(3191)    SX(3277)    SX(3279)
                          SX(3283)    SX(3284)""",
                site_density=2.72e-09,
                phases="gas",
          reactions='surface1-*',
                initial_state=state(temperature=300.0, pressure=OneAtm))

#-------------------------------------------------------------------------------
# Element data
#-------------------------------------------------------------------------------

element(symbol=u'X', atomic_mass=195.083)
element(symbol=u'Ci', atomic_mass=13.003)
element(symbol=u'D', atomic_mass=2.014)
element(symbol=u'Oi', atomic_mass=18.0)
element(symbol=u'T', atomic_mass=3.016)
#-------------------------------------------------------------------------------
# Species data
#-------------------------------------------------------------------------------

species(name=u'n-heptane',
        atoms='H:16 C:7',
        thermo=(NASA([100.00, 1262.73],
                     [-2.91681405E-03,  7.69373649E-02, -3.48025563E-05,
                       1.86095180E-09,  2.01573617E-12, -2.57829342E+04,
                       3.00312148E+01]),
                NASA([1262.73, 5000.00],
                     [ 1.38377915E+01,  4.85945016E-02, -1.95474548E-05,
                       3.52837178E-09, -2.39064676E-13, -3.05141556E+04,
                      -4.48642836E+01])))

species(name=u'Ar',
        atoms='Ar:1',
        thermo=(NASA([200.00, 1000.00],
                     [ 2.50000000E+00,  0.00000000E+00,  0.00000000E+00,
                       0.00000000E+00,  0.00000000E+00, -7.45375000E+02,
                       4.37967000E+00]),
                NASA([1000.00, 6000.00],
                     [ 2.50000000E+00,  0.00000000E+00,  0.00000000E+00,
                       0.00000000E+00,  0.00000000E+00, -7.45375000E+02,
                       4.37967000E+00])))

species(name=u'He',
        atoms='He:1',
        thermo=(NASA([200.00, 1000.00],
                     [ 2.50000000E+00,  0.00000000E+00,  0.00000000E+00,
                       0.00000000E+00,  0.00000000E+00, -7.45375000E+02,
                       9.28724000E-01]),
                NASA([1000.00, 6000.00],
                     [ 2.50000000E+00,  0.00000000E+00,  0.00000000E+00,
                       0.00000000E+00,  0.00000000E+00, -7.45375000E+02,
                       9.28724000E-01])))

species(name=u'Ne',
        atoms='Ne:1',
        thermo=(NASA([200.00, 1000.00],
                     [ 2.50000000E+00,  0.00000000E+00,  0.00000000E+00,
                       0.00000000E+00,  0.00000000E+00, -7.45375000E+02,
                       3.35532000E+00]),
                NASA([1000.00, 6000.00],
                     [ 2.50000000E+00,  0.00000000E+00,  0.00000000E+00,
                       0.00000000E+00,  0.00000000E+00, -7.45375000E+02,
                       3.35532000E+00])))

species(name=u'N2',
        atoms='N:2',
        thermo=(NASA([200.00, 1000.00],
                     [ 3.53101000E+00, -1.23661000E-04, -5.02999000E-07,
                       2.43531000E-09, -1.40881000E-12, -1.04698000E+03,
                       2.96747000E+00]),
                NASA([1000.00, 6000.00],
                     [ 2.95258000E+00,  1.39690000E-03, -4.92632000E-07,
                       7.86010000E-11, -4.60755000E-15, -9.23949000E+02,
                       5.87189000E+00])))

species(name=u'C2H4(2)',
        atoms='H:4 C:2',
        thermo=(NASA([100.00, 979.36],
                     [ 3.97471606E+00, -4.75844285E-03,  4.16783770E-05,
                      -4.51392516E-08,  1.54224761E-11,  4.91540746E+03,
                       3.62430844E+00]),
                NASA([979.36, 5000.00],
                     [ 3.55660610E+00,  1.10627464E-02, -4.17019079E-06,
                       7.85586770E-10, -5.70060829E-14,  4.32046489E+03,
                       2.17719479E+00])))

species(name=u'C4H8-1(3)',
        atoms='H:8 C:4',
        thermo=(NASA([100.00, 1007.28],
                     [ 2.58772906E+00,  2.32777969E-02,  1.93412349E-05,
                      -3.55496333E-08,  1.36906009E-11, -1.91872926E+03,
                       1.45750618E+01]),
                NASA([1007.28, 5000.00],
                     [ 7.20517168E+00,  2.36361568E-02, -9.03150028E-06,
                       1.65392666E-09, -1.16019260E-13, -3.79733937E+03,
                      -1.24426257E+01])))

species(name=u'C4H8-2(4)',
        atoms='H:8 C:4',
        thermo=(NASA([100.00, 1157.79],
                     [ 2.51998327E+00,  2.76812799E-02,  9.43783469E-07,
                      -1.25009101E-08,  4.67144666E-12, -3.34374767E+03,
                       1.30195623E+01]),
                NASA([1157.79, 5000.00],
                     [ 6.04225708E+00,  2.60072350E-02, -1.04843374E-05,
                       1.90880922E-09, -1.30600505E-13, -4.86276511E+03,
                      -7.52715109E+00])))

species(name=u'C4H6(7)',
        atoms='H:6 C:4',
        thermo=(NASA([100.00, 946.05],
                     [ 2.80599310E+00,  1.02584471E-02,  6.17260255E-05,
                      -9.01642687E-08,  3.59116961E-11,  1.16584972E+04,
                       1.20621434E+01]),
                NASA([946.05, 5000.00],
                     [ 1.24693720E+01,  1.00553901E-02, -2.41206872E-06,
                       4.57077303E-10, -3.93160571E-14,  8.01077795E+03,
                      -4.36374720E+01])))

species(name=u'H2(68)',
        atoms='H:2',
        thermo=(NASA([100.00, 1959.08],
                     [ 3.43536412E+00,  2.12710353E-04, -2.78625043E-07,
                       3.40267167E-10, -7.76031998E-14, -1.03135984E+03,
                      -3.90841732E+00]),
                NASA([1959.08, 5000.00],
                     [ 2.78816583E+00,  5.87640942E-04,  1.59010417E-07,
                      -5.52739026E-11,  4.34310984E-15, -5.96144270E+02,
                       1.12732655E-01])))

species(name=u'C6H8(111)',
        atoms='H:8 C:6',
        thermo=(NASA([100.00, 972.94],
                     [ 1.82686070E+00,  3.47046353E-02,  2.41070171E-05,
                      -5.44847920E-08,  2.29388832E-11,  1.99100661E+04,
                       1.81393315E+01]),
                NASA([972.94, 5000.00],
                     [ 1.21686202E+01,  2.40472785E-02, -8.58151834E-06,
                       1.57034031E-09, -1.12795334E-13,  1.63897115E+04,
                      -3.92195169E+01])))

species(name=u'C8H10(114)',
        atoms='H:10 C:8',
        thermo=(NASA([100.00, 1006.91],
                     [ 9.59099136E-01,  5.26052795E-02,  1.05118295E-05,
                      -4.60808495E-08,  1.99632153E-11,  2.84660811E+04,
                       2.35993329E+01]),
                NASA([1006.91, 5000.00],
                     [ 1.34171277E+01,  3.60526403E-02, -1.38971709E-05,
                       2.56761905E-09, -1.81631637E-13,  2.42875578E+04,
                      -4.48804849E+01])))

species(name=u'S(192)',
        atoms='H:16 C:12',
        thermo=(NASA([100.00, 980.77],
                     [-2.21845665E+00,  1.15202302E-01, -4.46058253E-05,
                      -2.89292454E-08,  2.08193354E-11,  3.97133228E+04,
                       4.48687920E+01]),
                NASA([980.77, 5000.00],
                     [ 2.59409200E+01,  4.89148103E-02, -1.74910345E-05,
                       3.12129948E-09, -2.18247198E-13,  3.18543069E+04,
                      -1.02343316E+02])))

species(name=u'S(203)',
        atoms='H:16 C:12',
        thermo=(NASA([100.00, 989.29],
                     [-1.49871027E+00,  8.97231513E-02,  3.13728211E-05,
                      -1.05849951E-07,  4.65472901E-11,  2.08342656E+04,
                       3.86324941E+01]),
                NASA([989.29, 5000.00],
                     [ 2.71231573E+01,  4.82447418E-02, -1.83146882E-05,
                       3.49879125E-09, -2.57494969E-13,  1.15378770E+04,
                      -1.17506583E+02])))

species(name=u'S(281)',
        atoms='H:12 C:10',
        thermo=(NASA([100.00, 1043.18],
                     [ 8.00010427E-02,  7.06155121E-02, -3.33970318E-06,
                      -3.75536308E-08,  1.70371997E-11,  3.70226034E+04,
                       3.04877535E+01]),
                NASA([1043.18, 5000.00],
                     [ 1.48527536E+01,  4.77532684E-02, -1.90425431E-05,
                       3.52560547E-09, -2.47266459E-13,  3.21023102E+04,
                      -5.02171312E+01])))

species(name=u'C8H10(315)',
        atoms='H:10 C:8',
        thermo=(NASA([100.00, 977.35],
                     [ 1.20172531E+00,  3.27274077E-02,  9.65442570E-05,
                      -1.46972960E-07,  5.73036376E-11,  3.66668179E+04,
                       1.86380248E+01]),
                NASA([977.35, 5000.00],
                     [ 1.91455428E+01,  3.13148912E-02, -1.18304959E-05,
                       2.35396563E-09, -1.80726910E-13,  2.97193129E+04,
                      -8.51181378E+01])))

species(name=u'C8H11(321)',
        atoms='H:11 C:8',
        thermo=(NASA([100.00, 956.07],
                     [-1.09891059E-02,  7.24055483E-02, -1.79539071E-05,
                      -3.40698735E-08,  2.01060051E-11,  2.28381705E+04,
                       2.77858466E+01]),
                NASA([956.07, 5000.00],
                     [ 1.94580865E+01,  2.89872242E-02, -9.50968002E-06,
                       1.65368217E-09, -1.16131753E-13,  1.73770137E+04,
                      -7.43579100E+01])))

species(name=u'S(384)',
        atoms='H:15 C:12',
        thermo=(NASA([100.00, 994.96],
                     [-9.10525753E-01,  7.23065908E-02,  7.86529115E-05,
                      -1.50118451E-07,  6.04728055E-11,  3.34535297E+04,
                       3.72742060E+01]),
                NASA([994.96, 5000.00],
                     [ 2.59409054E+01,  5.12026508E-02, -2.04595453E-05,
                       4.01923029E-09, -2.99921063E-13,  2.38116792E+04,
                      -1.13734786E+02])))

species(name=u'S(429)',
        atoms='H:16 C:12',
        thermo=(NASA([100.00, 1011.71],
                     [-1.20303342E+00,  8.13255676E-02,  5.51392531E-05,
                      -1.24057147E-07,  5.05122313E-11,  1.92626563E+04,
                       3.67681708E+01]),
                NASA([1011.71, 5000.00],
                     [ 2.55049272E+01,  5.47778999E-02, -2.26996210E-05,
                       4.46368808E-09, -3.29899575E-13,  9.81303791E+03,
                      -1.12386527E+02])))

species(name=u'S(604)',
        atoms='H:12 C:10',
        thermo=(NASA([100.00, 968.65],
                     [ 6.55596893E-03,  5.50367595E-02,  8.40309751E-05,
                      -1.50786277E-07,  6.17167027E-11,  3.87297379E+04,
                       2.63275406E+01]),
                NASA([968.65, 5000.00],
                     [ 2.42145071E+01,  3.63241455E-02, -1.28171324E-05,
                       2.46810154E-09, -1.87634557E-13,  3.02280478E+04,
                      -1.09367124E+02])))

species(name=u'S(697)',
        atoms='H:12 C:10',
        thermo=(NASA([100.00, 934.90],
                     [ 1.14949863E+00,  2.56056208E-02,  1.48145681E-04,
                      -2.17005632E-07,  8.71671305E-11,  1.98025721E+04,
                       2.52596418E+01]),
                NASA([934.90, 5000.00],
                     [ 2.30268642E+01,  2.66924504E-02, -5.52368921E-06,
                       9.11070585E-10, -7.58555397E-14,  1.15738298E+04,
                      -1.00944658E+02])))

species(name=u'S(775)',
        atoms='H:11 C:10',
        thermo=(NASA([100.00, 927.11],
                     [ 5.80169242E-01,  4.54991468E-02,  8.45438319E-05,
                      -1.52228728E-07,  6.51050039E-11,  3.12309550E+04,
                       2.57307422E+01]),
                NASA([927.11, 5000.00],
                     [ 2.31406667E+01,  2.44209791E-02, -4.73406672E-06,
                       6.89776122E-10, -5.41266922E-14,  2.37703881E+04,
                      -9.90782512E+01])))

species(name=u'S(812)',
        atoms='H:12 C:10',
        thermo=(NASA([100.00, 936.06],
                     [ 2.95830266E-01,  5.44689708E-02,  6.09446235E-05,
                      -1.25610619E-07,  5.46763618E-11,  1.70397067E+04,
                       2.51926264E+01]),
                NASA([936.06, 5000.00],
                     [ 2.24308561E+01,  2.84460946E-02, -7.22714492E-06,
                       1.19289639E-09, -8.89025831E-14,  9.89187725E+03,
                      -9.61788204E+01])))

species(name=u'S(882)',
        atoms='H:11 C:10',
        thermo=(NASA([100.00, 948.23],
                     [ 9.48610297E-01,  4.57480578E-02,  5.94433889E-05,
                      -1.07641581E-07,  4.44708543E-11,  3.15502157E+04,
                       2.71111390E+01]),
                NASA([948.23, 5000.00],
                     [ 1.56110390E+01,  3.74015703E-02, -1.19924608E-05,
                       2.08871417E-09, -1.48107957E-13,  2.63640891E+04,
                      -5.55310537E+01])))

species(name=u'S(1008)',
        atoms='H:12 C:10',
        thermo=(NASA([100.00, 967.29],
                     [ 6.54512479E-01,  5.48222254E-02,  3.55433413E-05,
                      -8.07551584E-08,  3.39955407E-11,  1.73593892E+04,
                       2.66086089E+01]),
                NASA([967.29, 5000.00],
                     [ 1.50002003E+01,  4.12607497E-02, -1.43908124E-05,
                       2.56962456E-09, -1.81052037E-13,  1.24432657E+04,
                      -5.31901332E+01])))

species(name=u'S(1103)',
        atoms='H:15 C:12',
        thermo=(NASA([100.00, 970.90],
                     [-1.71520867E+00,  9.95432566E-02, -4.74357209E-06,
                      -7.04390643E-08,  3.56211412E-11,  3.34415592E+04,
                       3.83477263E+01]),
                NASA([970.90, 5000.00],
                     [ 2.67411184E+01,  4.44003661E-02, -1.54835680E-05,
                       2.80861775E-09, -2.01631064E-13,  2.49892981E+04,
                      -1.13168941E+02])))

species(name=u'S(1153)',
        atoms='H:13 C:10',
        thermo=(NASA([100.00, 976.25],
                     [ 2.44850415E-02,  5.63859714E-02,  7.92794649E-05,
                      -1.41928102E-07,  5.74393116E-11,  2.04708984E+04,
                       2.81369127E+01]),
                NASA([976.25, 5000.00],
                     [ 2.23687210E+01,  4.13694852E-02, -1.52419740E-05,
                       2.92184710E-09, -2.18042141E-13,  1.24610288E+04,
                      -9.78033799E+01])))

species(name=u'S(1252)',
        atoms='H:14 C:12',
        thermo=(NASA([100.00, 950.27],
                     [-5.57825460E-01,  7.22327337E-02,  4.76638561E-05,
                      -1.17323641E-07,  5.15979111E-11,  2.55951014E+04,
                       3.12934768E+01]),
                NASA([950.27, 5000.00],
                     [ 2.34667276E+01,  4.08032257E-02, -1.27416508E-05,
                       2.23646027E-09, -1.61535227E-13,  1.78822140E+04,
                      -9.99436230E+01])))

species(name=u'S(1506)',
        atoms='H:16 C:12',
        thermo=(NASA([100.00, 1004.93],
                     [-1.86953211E+00,  1.06206677E-01, -2.64820787E-05,
                      -4.17090881E-08,  2.34551360E-11,  1.81015856E+04,
                       3.84629587E+01]),
                NASA([1004.93, 5000.00],
                     [ 2.47180269E+01,  5.08962835E-02, -1.93288938E-05,
                       3.56914595E-09, -2.53442808E-13,  1.02069855E+04,
                      -1.02629192E+02])))

species(name=u'S(1510)',
        atoms='H:15 C:12',
        thermo=(NASA([100.00, 1028.72],
                     [-1.38382926E+00,  9.83694651E-02, -2.29246245E-05,
                      -3.53241515E-08,  1.90513078E-11,  2.68413084E+04,
                       3.97493594E+01]),
                NASA([1028.72, 5000.00],
                     [ 2.08028799E+01,  5.47097642E-02, -2.13935573E-05,
                       3.94752855E-09, -2.77507283E-13,  2.00219302E+04,
                      -7.88751933E+01])))

species(name=u'S(1581)',
        atoms='H:16 C:12',
        thermo=(NASA([100.00, 1108.78],
                     [-1.83403471E+00,  1.10604735E-01, -5.48291523E-05,
                      -1.04446456E-09,  6.40255852E-12,  2.08564239E+04,
                       3.83969645E+01]),
                NASA([1108.78, 5000.00],
                     [ 2.13248215E+01,  5.70740339E-02, -2.30179773E-05,
                       4.24412032E-09, -2.94864290E-13,  1.38756972E+04,
                      -8.40429558E+01])))

species(name=u'S(1582)',
        atoms='H:16 C:12',
        thermo=(NASA([100.00, 994.24],
                     [-8.77714614E-01,  7.95766680E-02,  4.12622924E-05,
                      -1.04567943E-07,  4.37919587E-11,  2.13635169E+04,
                       3.87779820E+01]),
                NASA([994.24, 5000.00],
                     [ 2.16952477E+01,  5.47829300E-02, -2.09375569E-05,
                       3.92775475E-09, -2.83126795E-13,  1.36117993E+04,
                      -8.64033165E+01])))

species(name=u'S(1856)',
        atoms='H:15 C:12',
        thermo=(NASA([100.00, 1611.33],
                     [-1.28969180E+00,  1.04701945E-01, -5.70754851E-05,
                       1.13937717E-08, -3.10997721E-13,  2.04771990E+04,
                       3.66965705E+01]),
                NASA([1611.33, 5000.00],
                     [ 2.76660262E+01,  5.07465045E-02, -2.35342452E-05,
                       4.42023440E-09, -3.00159166E-13,  8.81875456E+03,
                      -1.24032373E+02])))

species(name=u'S(1934)',
        atoms='H:16 C:12',
        thermo=(NASA([100.00, 1092.95],
                     [-1.72828411E+00,  1.07940671E-01, -4.80578394E-05,
                      -7.66197184E-09,  8.64375373E-12,  1.26527356E+04,
                       3.94333791E+01]),
                NASA([1092.95, 5000.00],
                     [ 2.09731446E+01,  5.73009442E-02, -2.30850248E-05,
                       4.26560727E-09, -2.97201545E-13,  5.75270050E+03,
                      -8.09703221E+01])))

species(name=u'S(2132)',
        atoms='H:14 C:10',
        thermo=(NASA([100.00, 1012.53],
                     [-1.20605840E+00,  9.40401291E-02, -2.93709084E-05,
                      -3.14398490E-08,  1.89945163E-11,  2.17676358E+04,
                       3.69663981E+01]),
                NASA([1012.53, 5000.00],
                     [ 2.36543438E+01,  4.03205348E-02, -1.56993177E-05,
                       2.95478832E-09, -2.12434612E-13,  1.44525644E+04,
                      -9.45425192E+01])))

species(name=u'S(2338)',
        atoms='H:14 C:10',
        thermo=(NASA([100.00, 1066.04],
                     [-8.36866511E-01,  9.11734277E-02, -4.03442446E-05,
                      -8.06847868E-09,  8.32995016E-12,  2.10908405E+04,
                       3.64622873E+01]),
                NASA([1066.04, 5000.00],
                     [ 1.84323227E+01,  4.73275223E-02, -1.86897690E-05,
                       3.42943587E-09, -2.38675945E-13,  1.53655751E+04,
                      -6.53164858E+01])))

species(name=u'S(2479)',
        atoms='H:11 C:10',
        thermo=(NASA([100.00, 1381.33],
                     [-1.31192539E+00,  1.01013018E-01, -1.27736229E-04,
                       8.55666301E-08, -1.99650689E-11,  2.79758071E+04,
                       2.80375735E+01]),
                NASA([1381.33, 5000.00],
                     [ 1.01895884E+01,  2.28569639E-02,  5.83780085E-06,
                      -2.40543758E-09,  2.10736184E-13,  2.90772183E+04,
                      -1.56778076E+01])))

species(name=u'S(2606)',
        atoms='H:12 C:10',
        thermo=(NASA([100.00, 953.51],
                     [ 8.21214316E-01,  4.73176809E-02,  6.19797203E-05,
                      -1.11881066E-07,  4.60176941E-11,  1.80592420E+04,
                       2.67156431E+01]),
                NASA([953.51, 5000.00],
                     [ 1.64234124E+01,  3.82596898E-02, -1.24852877E-05,
                       2.20904047E-09, -1.58058960E-13,  1.25202583E+04,
                      -6.12562002E+01])))

species(name=u'S(2803)',
        atoms='H:14 C:12',
        thermo=(NASA([100.00, 1068.15],
                     [-1.05537288E+00,  9.54829757E-02, -4.03613729E-05,
                      -9.48385705E-09,  8.84860091E-12,  2.59743294E+04,
                       3.73012724E+01]),
                NASA([1068.15, 5000.00],
                     [ 1.84321378E+01,  5.18475023E-02, -2.02877867E-05,
                       3.70393362E-09, -2.56869115E-13,  2.01373703E+04,
                      -6.58346987E+01])))

species(name=u'S(2947)',
        atoms='H:16 C:12',
        thermo=(NASA([100.00, 1041.38],
                     [-1.35750078E+00,  9.52208235E-02, -9.01439167E-06,
                      -4.97673163E-08,  2.35580026E-11,  2.50753582E+03,
                       4.07100350E+01]),
                NASA([1041.38, 5000.00],
                     [ 2.18022512E+01,  5.54531856E-02, -2.25861198E-05,
                       4.27891148E-09, -3.05466315E-13, -4.98338373E+03,
                      -8.47679367E+01])))

species(name=u'S(3039)',
        atoms='H:15 C:12',
        thermo=(NASA([100.00, 989.74],
                     [-1.06920106E+00,  8.65061190E-02,  1.75663536E-05,
                      -8.13090760E-08,  3.63222951E-11,  3.19614090E+04,
                       3.90682869E+01]),
                NASA([989.74, 5000.00],
                     [ 2.18995972E+01,  5.23509098E-02, -1.95909391E-05,
                       3.61476272E-09, -2.57905034E-13,  2.45410598E+04,
                      -8.60235913E+01])))

species(name=u'S(3061)',
        atoms='H:15 C:12',
        thermo=(NASA([100.00, 984.37],
                     [-5.37896420E-01,  6.91571916E-02,  6.78331849E-05,
                      -1.32481351E-07,  5.38778566E-11,  3.40474077E+04,
                       3.25829999E+01]),
                NASA([984.37, 5000.00],
                     [ 2.21119676E+01,  5.17760824E-02, -1.94438000E-05,
                       3.67256768E-09, -2.68128755E-13,  2.59711429E+04,
                      -9.47052603E+01])))

species(name=u'S(3101)',
        atoms='H:16 C:12',
        thermo=(NASA([100.00, 992.60],
                     [-2.02051020E+00,  1.08734835E-01, -2.89711942E-05,
                      -4.32763322E-08,  2.51062468E-11,  1.92512215E+04,
                       3.85793690E+01]),
                NASA([992.60, 5000.00],
                     [ 2.62576693E+01,  4.80482550E-02, -1.77622499E-05,
                       3.26163402E-09, -2.32284753E-13,  1.10132322E+04,
                      -1.10855289E+02])))

species(name=u'X(1)',
        atoms='X:1',
        thermo=(NASA([100.00, 1554.80],
                     [ 7.10139498E-03, -4.25619522E-05,  8.98533016E-08,
                      -7.80193649E-11,  2.32465471E-14, -8.76101712E-01,
                      -3.11211229E-02]),
                NASA([1554.80, 5000.00],
                     [ 1.60299900E-01, -2.52235409E-04,  1.14181275E-07,
                      -1.21471653E-11,  3.85790025E-16, -7.08100885E+01,
                      -9.09527530E-01])))

species(name=u'HX(5)',
        atoms='H:1 X:1',
        thermo=(NASA([100.00, 952.91],
                     [-3.80965452E-01,  5.47228709E-03,  2.60912778E-06,
                      -9.64961980E-09,  4.63946753E-12, -2.16972714E+03,
                       1.01725550E+00]),
                NASA([952.91, 5000.00],
                     [ 2.80339655E+00, -5.41047017E-04,  4.99507978E-07,
                      -7.54963647E-11,  3.06772366E-15, -3.11047656E+03,
                      -1.59436787E+01])))

species(name=u'C2H3X(37)',
        atoms='H:3 C:2 X:1',
        thermo=(NASA([100.00, 928.62],
                     [ 3.83091018E+00, -8.76381562E-03,  6.97956896E-05,
                      -8.67969174E-08,  3.33218121E-11,  1.24795184E+04,
                      -1.81151753E+01]),
                NASA([928.62, 5000.00],
                     [ 8.78054562E+00,  1.92497720E-03,  8.25825014E-07,
                      -1.63749818E-10,  5.71728318E-15,  1.01801153E+04,
                      -4.90588618E+01])))

species(name=u'C4H5X(80)',
        atoms='H:5 C:4 X:1',
        thermo=(NASA([100.00, 936.52],
                     [ 2.68471723E+00,  1.36244496E-02,  5.32591849E-05,
                      -8.32912448E-08,  3.41499374E-11,  1.45727486E+04,
                      -1.06510487E+01]),
                NASA([936.52, 5000.00],
                     [ 1.29012266E+01,  8.96921861E-03, -1.71920076E-06,
                       2.89744517E-10, -2.58686364E-14,  1.09497097E+04,
                      -6.83963397E+01])))

species(name=u'C4H5X(81)',
        atoms='H:5 C:4 X:1',
        thermo=(NASA([100.00, 928.63],
                     [ 2.64232495E+00,  8.31109593E-03,  8.12146261E-05,
                      -1.21398701E-07,  4.98630759E-11,  1.97556574E+04,
                      -1.03932963E+01]),
                NASA([928.63, 5000.00],
                     [ 1.69490474E+01,  2.00818812E-03,  2.03468841E-06,
                      -4.02657023E-10,  1.85400094E-14,  1.47131630E+04,
                      -9.11990785E+01])))

species(name=u'C6H7X(132)',
        atoms='H:7 C:6 X:1',
        thermo=(NASA([100.00, 939.12],
                     [ 1.23971063E+00,  4.15294424E-02,  2.87312030E-05,
                      -7.68516542E-08,  3.51745289E-11,  2.00393518E+04,
                      -4.03285459E+00]),
                NASA([939.12, 5000.00],
                     [ 1.93724853E+01,  1.27701081E-02, -2.75741682E-06,
                       4.63865028E-10, -3.86965214E-14,  1.44960216E+04,
                      -1.01754711E+02])))

species(name=u'C6H7X(134)',
        atoms='H:7 C:6 X:1',
        thermo=(NASA([100.00, 945.31],
                     [ 1.76545134E+00,  3.00643386E-02,  5.04823806E-05,
                      -9.18356912E-08,  3.86710488E-11,  2.76552933E+04,
                      -4.22047906E+00]),
                NASA([945.31, 5000.00],
                     [ 1.62876414E+01,  1.66989483E-02, -4.60790511E-06,
                       8.23797195E-10, -6.40998588E-14,  2.27612606E+04,
                      -8.48285150E+01])))

species(name=u'C8H9X(316)',
        atoms='H:9 C:8 X:1',
        thermo=(NASA([100.00, 959.28],
                     [ 3.85882967E-01,  5.92908085E-02,  1.54833399E-05,
                      -6.86507645E-08,  3.21558607E-11,  2.85947555E+04,
                       2.06887013E+00]),
                NASA([959.28, 5000.00],
                     [ 2.04284767E+01,  2.50940018E-02, -8.25315628E-06,
                       1.50306504E-09, -1.10971517E-13,  2.24776020E+04,
                      -1.05633347E+02])))

species(name=u'SX(354)',
        atoms='H:11 C:8 X:1',
        thermo=(NASA([100.00, 950.15],
                     [-5.48114945E-02,  6.95516648E-02,  2.46715274E-06,
                      -5.99529360E-08,  3.01468379E-11,  1.31064632E+04,
                       7.02236222E+00]),
                NASA([950.15, 5000.00],
                     [ 2.11624883E+01,  2.85157015E-02, -8.97838801E-06,
                       1.56332110E-09, -1.12027508E-13,  6.89494973E+03,
                      -1.05723607E+02])))

species(name=u'SX(445)',
        atoms='H:15 C:12 X:1',
        thermo=(NASA([100.00, 987.58],
                     [-9.53673816E-01,  6.94567418E-02,  9.89953662E-05,
                      -1.75789719E-07,  7.03673048E-11,  2.37217869E+04,
                       1.65075881E+01]),
                NASA([987.58, 5000.00],
                     [ 2.75829861E+01,  5.08329941E-02, -1.99853220E-05,
                       3.94206265E-09, -2.96893311E-13,  1.33571239E+04,
                      -1.44747128E+02])))

species(name=u'SX(448)',
        atoms='H:15 C:12 X:1',
        thermo=(NASA([100.00, 975.90],
                     [-1.51414519E+00,  8.61139252E-02,  4.96902414E-05,