units(length='cm', time='s', quantity='mol', act_energy='kcal/mol')

ideal_gas(name='gas',
          elements="H D T C Ci O Oi N Ne Ar He Si S F Cl Br I X",
          species="""Ar          Ne          N2          CH4(2)
                     O2(3)       CO2(4)      H2O(5)      H2(6)
                     CO(7)       C2H6(8)     CH2O(9)     CH3(10)
                     C3H8(11)    H(12)       C2H5(13)    CH3OH(14)
                     HCO(15)     CH3CHO(16)  OH(17)      C2H4(18)
                     O(29)       CH2(T)(34)  CH2OH(40)   acetyl(44)
                     C2H3(46)    C2H4(47)    CH3OO(82)   CH2O2(186)
                     C2H2(348)   C2H2(372)""",
          reactions='gas-*',
          transport='Mix',
          initial_state=state(temperature=300.0, pressure=OneAtm))

ideal_interface(name='surface1',
                elements="H D T C Ci O Oi N Ne Ar He Si S F Cl Br I X",
                species="""X(1)        HX(19)      OX(20)      CH3X(21)
                          HOX(22)     H2OX(23)    CO2X(24)    OCX(25)
                          CX(26)      CH2X(27)    CHX(28)     CH4X(48)
                          H2X(49)     COX(50)     C2H6X(52)   CHOX(53)
                          CH2OX(54)   CH3X(55)    CH4OX(63)   OH(D)X(68)
                          C2H3X(69)   C2H4X(70)   C2H3X(221)  C2H4X(222)
                          C2H2X(298)  C2HX(305)   C2H2X(336)  C2H2X(373)""",
                site_density=2.72e-09,
                phases="gas",
          reactions='surface1-*',
                initial_state=state(temperature=300.0, pressure=OneAtm))

#-------------------------------------------------------------------------------
# Element data
#-------------------------------------------------------------------------------

element(symbol='Ci', atomic_mass=13.003)
element(symbol='D', atomic_mass=2.014)
element(symbol='Oi', atomic_mass=18.0)
element(symbol='T', atomic_mass=3.016)
element(symbol='X', atomic_mass=195.083)
#-------------------------------------------------------------------------------
# Species data
#-------------------------------------------------------------------------------

species(name='Ar',
        atoms='Ar:1',
        thermo=(NASA([200.00, 1000.00],
                     [ 2.50000000E+00,  0.00000000E+00,  0.00000000E+00,
                       0.00000000E+00,  0.00000000E+00, -7.45375000E+02,
                       4.37967000E+00]),
                NASA([1000.00, 6000.00],
                     [ 2.50000000E+00,  0.00000000E+00,  0.00000000E+00,
                       0.00000000E+00,  0.00000000E+00, -7.45375000E+02,
                       4.37967000E+00])),
        transport=gas_transport(geom='atom',
                                diam=3.33,
                                well_depth=136.5))

species(name='Ne',
        atoms='Ne:1',
        thermo=(NASA([200.00, 1000.00],
                     [ 2.50000000E+00,  0.00000000E+00,  0.00000000E+00,
                       0.00000000E+00,  0.00000000E+00, -7.45375000E+02,
                       3.35532000E+00]),
                NASA([1000.00, 6000.00],
                     [ 2.50000000E+00,  0.00000000E+00,  0.00000000E+00,
                       0.00000000E+00,  0.00000000E+00, -7.45375000E+02,
                       3.35532000E+00])),
        transport=gas_transport(geom='atom',
                                diam=3.758,
                                well_depth=148.6))

species(name='N2',
        atoms='N:2',
        thermo=(NASA([200.00, 1000.00],
                     [ 3.53101000E+00, -1.23661000E-04, -5.02999000E-07,
                       2.43531000E-09, -1.40881000E-12, -1.04698000E+03,
                       2.96747000E+00]),
                NASA([1000.00, 6000.00],
                     [ 2.95258000E+00,  1.39690000E-03, -4.92632000E-07,
                       7.86010000E-11, -4.60755000E-15, -9.23949000E+02,
                       5.87189000E+00])),
        transport=gas_transport(geom='linear',
                                diam=3.621,
                                well_depth=97.53,
                                polar=1.76,
                                rot_relax=4.0))

species(name='CH4(2)',
        atoms='C:1 H:4',
        thermo=(NASA([100.00, 1084.12],
                     [ 4.20541524E+00, -5.35557362E-03,  2.51123265E-05,
                      -2.13762843E-08,  5.97523937E-12, -1.01619433E+04,
                      -9.21279283E-01]),
                NASA([1084.12, 5000.00],
                     [ 9.08265721E-01,  1.14540858E-02, -4.57173828E-06,
                       8.29191671E-10, -5.66314895E-14, -9.71997444E+03,
                       1.39930944E+01])),
        transport=gas_transport(geom='nonlinear',
                                diam=3.746,
                                well_depth=141.4,
                                polar=2.6,
                                rot_relax=13.0))

species(name='O2(3)',
        atoms='O:2',
        thermo=(NASA([100.00, 1074.56],
                     [ 3.53732181E+00, -1.21570930E-03,  5.31617826E-06,
                      -4.89443424E-09,  1.45845042E-12, -1.03858846E+03,
                       4.68368406E+00]),
                NASA([1074.56, 5000.00],
                     [ 3.15382425E+00,  1.67803802E-03, -7.69971022E-07,
                       1.51274714E-10, -1.08781801E-14, -1.04081878E+03,
                       6.16753884E+00])),
        transport=gas_transport(geom='linear',
                                diam=3.467,
                                well_depth=106.7))

species(name='CO2(4)',
        atoms='C:1 O:2',
        thermo=(NASA([100.00, 978.21],
                     [ 3.28084634E+00,  2.50183460E-03,  8.08199998E-06,
                      -1.20511416E-08,  4.66547255E-12, -4.84008304E+04,
                       6.00080795E+00]),
                NASA([978.21, 5000.00],
                     [ 4.67426743E+00,  2.60964031E-03, -9.85689857E-07,
                       1.95713857E-10, -1.49836245E-14, -4.89512140E+04,
                      -2.11073617E+00])),
        transport=gas_transport(geom='linear',
                                diam=3.941,
                                well_depth=195.201))

species(name='H2O(5)',
        atoms='H:2 O:1',
        thermo=(NASA([100.00, 1130.24],
                     [ 4.05763610E+00, -7.87938871E-04,  2.90878480E-06,
                      -1.47520039E-09,  2.12847506E-13, -3.02815866E+04,
                      -3.11365027E-01]),
                NASA([1130.24, 5000.00],
                     [ 2.84324866E+00,  2.75108838E-03, -7.81033120E-07,
                       1.07244016E-10, -5.79395308E-15, -2.99586120E+04,
                       5.91043011E+00])),
        transport=gas_transport(geom='nonlinear',
                                diam=2.641,
                                well_depth=809.102,
                                polar=1.76,
                                rot_relax=4.0))

species(name='H2(6)',
        atoms='H:2',
        thermo=(NASA([100.00, 1959.08],
                     [ 3.43536412E+00,  2.12710353E-04, -2.78625043E-07,
                       3.40267167E-10, -7.76031998E-14, -1.03135984E+03,
                      -3.90841732E+00]),
                NASA([1959.08, 5000.00],
                     [ 2.78816583E+00,  5.87640942E-04,  1.59010417E-07,
                      -5.52739026E-11,  4.34310984E-15, -5.96144270E+02,
                       1.12732655E-01])),
        transport=gas_transport(geom='linear',
                                diam=2.833,
                                well_depth=59.7))

species(name='CO(7)',
        atoms='C:1 O:1',
        thermo=(NASA([100.00, 1571.63],
                     [ 3.56838038E+00, -8.52129500E-04,  2.48918819E-06,
                      -1.56331996E-09,  3.13598127E-13, -1.42842550E+04,
                       3.57912028E+00]),
                NASA([1571.63, 5000.00],
                     [ 2.91305202E+00,  1.64659937E-03, -6.88625686E-07,
                       1.21039677E-10, -7.84035796E-15, -1.41808768E+04,
                       6.71054299E+00])),
        transport=gas_transport(geom='linear',
                                diam=3.69,
                                well_depth=91.7,
                                polar=1.76,
                                rot_relax=4.0))

species(name='C2H6(8)',
        atoms='C:2 H:6',
        thermo=(NASA([100.00, 1012.42],
                     [ 3.72239291E+00,  1.65083841E-03,  3.44175530E-05,
                      -3.76858229E-08,  1.24450657E-11, -1.15575901E+04,
                       4.68247999E+00]),
                NASA([1012.42, 5000.00],
                     [ 2.82848257E+00,  1.73040568E-02, -6.73334245E-06,
                       1.23742024E-09, -8.65676410E-14, -1.19978080E+04,
                       5.93811707E+00])),
        transport=gas_transport(geom='nonlinear',
                                diam=4.302,
                                well_depth=252.3,
                                rot_relax=1.5))

species(name='CH2O(9)',
        atoms='C:1 H:2 O:1',
        thermo=(NASA([100.00, 1070.44],
                     [ 4.12927802E+00, -4.08401318E-03,  2.03229341E-05,
                      -1.83524244E-08,  5.37975522E-12, -1.44294640E+04,
                       3.22418463E+00]),
                NASA([1070.44, 5000.00],
                     [ 2.21172442E+00,  7.94265679E-03, -3.34193053E-06,
                       6.28471401E-10, -4.40431446E-14, -1.42974456E+04,
                       1.13048985E+01])),
        transport=gas_transport(geom='nonlinear',
                                diam=3.59,
                                well_depth=498.0,
                                rot_relax=2.0))

species(name='CH3(10)',
        atoms='C:1 H:3',
        thermo=(NASA([100.00, 697.71],
                     [ 3.96043098E+00,  5.92939934E-04,  8.78575390E-06,
                      -9.88030557E-09,  3.63234580E-12,  1.64218818E+04,
                       3.39865631E-01]),
                NASA([697.71, 5000.00],
                     [ 3.09511187E+00,  5.55429874E-03, -1.88158855E-06,
                       3.13335012E-10, -2.05195181E-14,  1.65426192E+04,
                       4.20297876E+00])),
        transport=gas_transport(geom='nonlinear',
                                diam=3.8,
                                well_depth=144.0))

species(name='C3H8(11)',
        atoms='C:3 H:8',
        thermo=(NASA([100.00, 989.99],
                     [ 3.06336167E+00,  1.29214561E-02,  3.47032808E-05,
                      -4.70946154E-08,  1.71384141E-11, -1.43905789E+04,
                       1.07835592E+01]),
                NASA([989.99, 5000.00],
                     [ 5.60440043E+00,  2.19528785E-02, -8.22080610E-06,
                       1.50103993E-09, -1.05635358E-13, -1.58394038E+04,
                      -6.22623300E+00])),
        transport=gas_transport(geom='nonlinear',
                                diam=4.982,
                                well_depth=266.801,
                                rot_relax=1.0))

species(name='H(12)',
        atoms='H:1',
        thermo=(NASA([100.00, 3459.60],
                     [ 2.50000000E+00,  9.24384602E-15, -1.36779837E-17,
                       6.66184769E-21, -1.00106912E-24,  2.54742178E+04,
                      -4.44972896E-01]),
                NASA([3459.60, 5000.00],
                     [ 2.49999999E+00,  9.20455546E-12, -3.58608293E-15,
                       6.15198922E-19, -3.92041801E-23,  2.54742178E+04,
                      -4.44972842E-01])),
        transport=gas_transport(geom='atom',
                                diam=2.05,
                                well_depth=145.0))

species(name='C2H5(13)',
        atoms='C:2 H:5',
        thermo=(NASA([100.00, 1006.87],
                     [ 3.68746539E+00,  3.06889693E-03,  2.55873112E-05,
                      -2.94076576E-08,  9.94076215E-12,  1.31153648E+04,
                       6.96684864E+00]),
                NASA([1006.87, 5000.00],
                     [ 3.53781010E+00,  1.37311636E-02, -5.29564638E-06,
                       9.71482858E-10, -6.80289490E-14,  1.26351790E+04,
                       5.15566048E+00])),
        transport=gas_transport(geom='nonlinear',
                                diam=4.302,
                                well_depth=252.3,
                                rot_relax=1.5))

species(name='CH3OH(14)',
        atoms='C:1 H:4 O:1',
        thermo=(NASA([100.00, 1035.75],
                     [ 3.84006214E+00,  1.38241998E-03,  1.91667191E-05,
                      -2.01568660E-08,  6.39102259E-12, -2.56083087E+04,
                       5.90978137E+00]),
                NASA([1035.75, 5000.00],
                     [ 2.79184298E+00,  1.15827852E-02, -4.51551928E-06,
                       8.21206706E-10, -5.67063250E-14, -2.57211674E+04,
                       9.41061586E+00])),
        transport=gas_transport(geom='nonlinear',
                                diam=3.626,
                                well_depth=481.8,
                                rot_relax=1.0))

species(name='HCO(15)',
        atoms='C:1 H:1 O:1',
        thermo=(NASA([100.00, 1112.10],
                     [ 4.05936407E+00, -1.73846452E-03,  9.14981041E-06,
                      -8.01131526E-09,  2.25737264E-12,  3.84377617E+03,
                       3.32449702E+00]),
                NASA([1112.10, 5000.00],
                     [ 3.05136186E+00,  4.11706437E-03, -1.75586433E-06,
                       3.29302821E-10, -2.29174030E-14,  3.93007923E+03,
                       7.67464289E+00])),
        transport=gas_transport(geom='nonlinear',
                                diam=3.59,
                                well_depth=498.0))

species(name='CH3CHO(16)',
        atoms='C:2 H:4 O:1',
        thermo=(NASA([100.00, 1028.81],
                     [ 3.57991319E+00,  5.18996203E-03,  2.26893060E-05,
                      -2.73736957E-08,  9.28455869E-12, -2.13697369E+04,
                       8.96975431E+00]),
                NASA([1028.81, 5000.00],
                     [ 4.08568882E+00,  1.39060358E-02, -5.59365394E-06,
                       1.04608143E-09, -7.38729265E-14, -2.20391558E+04,
                       3.76773341E+00])),
        transport=gas_transport(geom='nonlinear',
                                diam=3.97,
                                well_depth=436.0,
                                rot_relax=2.0))

species(name='OH(17)',
        atoms='H:1 O:1',
        thermo=(NASA([100.00, 1145.75],
                     [ 3.51456768E+00,  2.92814373E-05, -5.32176582E-07,
                       1.01950588E-09, -3.85951152E-13,  3.41425421E+03,
                       2.10435015E+00]),
                NASA([1145.75, 5000.00],
                     [ 3.07194246E+00,  6.04011411E-04, -1.39759127E-08,
                      -2.13451563E-11,  2.48070095E-15,  3.57938557E+03,
                       4.57798500E+00])),
        transport=gas_transport(geom='linear',
                                diam=2.75,
                                well_depth=80.0))

species(name='C2H4(18)',
        atoms='C:2 H:4',
        thermo=(NASA([100.00, 979.36],
                     [ 3.97471606E+00, -4.75844285E-03,  4.16783770E-05,
                      -4.51392516E-08,  1.54224761E-11,  4.91540746E+03,
                       3.62430844E+00]),
                NASA([979.36, 5000.00],
                     [ 3.55660610E+00,  1.10627464E-02, -4.17019079E-06,
                       7.85586770E-10, -5.70060829E-14,  4.32046489E+03,
                       2.17719479E+00])),
        transport=gas_transport(geom='nonlinear',
                                diam=3.971,
                                well_depth=280.8,
                                rot_relax=1.5))

species(name='O(29)',
        atoms='O:1',
        thermo=(NASA([100.00, 3459.60],
                     [ 2.50000000E+00,  9.24384602E-15, -1.36779837E-17,
                       6.66184769E-21, -1.00106912E-24,  2.92302441E+04,
                       5.12616427E+00]),
                NASA([3459.60, 5000.00],
                     [ 2.49999999E+00,  9.20455546E-12, -3.58608293E-15,
                       6.15198922E-19, -3.92041801E-23,  2.92302441E+04,
                       5.12616433E+00])),
        transport=gas_transport(geom='atom',
                                diam=2.75,
                                well_depth=80.0))

species(name='CH2(T)(34)',
        atoms='C:1 H:2',
        thermo=(NASA([100.00, 1104.58],
                     [ 4.01192393E+00, -1.54979233E-04,  3.26297968E-06,
                      -2.40421972E-09,  5.69497258E-13,  4.58676802E+04,
                       5.33200312E-01]),
                NASA([1104.58, 5000.00],
                     [ 3.14983412E+00,  2.96674212E-03, -9.76055554E-07,
                       1.54115208E-10, -9.50337502E-15,  4.60581389E+04,
                       4.77807527E+00])),
        transport=gas_transport(geom='nonlinear',
                                diam=3.8,
                                well_depth=144.0))

species(name='CH2OH(40)',
        atoms='C:1 H:3 O:1',
        thermo=(NASA([100.00, 1015.48],
                     [ 3.61905444E+00,  6.28695698E-03,  5.57453382E-06,
                      -9.77872604E-09,  3.69458574E-12, -3.32162396E+03,
                       6.61713040E+00]),
                NASA([1015.48, 5000.00],
                     [ 4.77201169E+00,  6.78473588E-03, -2.60442931E-06,
                       4.77565512E-10, -3.34609211E-14, -3.81561325E+03,
                      -2.42265753E-01])),
        transport=gas_transport(geom='nonlinear',
                                diam=3.69,
                                well_depth=417.0,
                                dipole=1.7,
                                rot_relax=2.0))

species(name='acetyl(44)',
        atoms='C:2 H:3 O:1',
        thermo=(NASA([100.00, 1011.57],
                     [ 3.63677897E+00,  4.50842767E-03,  1.80295451E-05,
                      -2.25970534E-08,  7.88627605E-12, -2.54495151E+03,
                       9.39482632E+00]),
                NASA([1011.57, 5000.00],
                     [ 4.39399998E+00,  1.04823697E-02, -4.12727295E-06,
                       7.69397006E-10, -5.45059171E-14, -3.15699378E+03,
                       3.46497450E+00])),
        transport=gas_transport(geom='nonlinear',
                                diam=3.97,
                                well_depth=436.0,
                                rot_relax=2.0))

species(name='C2H3(46)',
        atoms='C:2 H:3',
        thermo=(NASA([100.00, 956.69],
                     [ 3.83146115E+00, -7.47448486E-04,  2.72388708E-05,
                      -3.26055590E-08,  1.18614714E-11,  3.44534845E+04,
                       5.55913311E+00]),
                NASA([956.69, 5000.00],
                     [ 4.81087656E+00,  6.59337838E-03, -2.20129495E-06,
                       4.04587872E-10, -2.98091068E-14,  3.37427523E+04,
                      -1.85774644E+00])),
        transport=gas_transport(geom='nonlinear',
                                diam=4.1,
                                well_depth=209.0,
                                rot_relax=1.0))

species(name='C2H4(47)',
        atoms='C:2 H:4',
        thermo=(NASA([100.00, 846.11],
                     [ 3.36869114E+00,  1.64232504E-02, -2.16503709E-05,
                       2.18227984E-08, -8.70182877E-12,  4.28682838E+04,
                       2.18539333E+01]),
                NASA([846.11, 5000.00],
                     [ 2.62344910E+00,  1.38429140E-02, -6.25541075E-06,
                       1.16703453E-09, -7.95359410E-14,  4.32128675E+04,
                       2.66158079E+01])),
        transport=gas_transport(geom='nonlinear',
                                diam=4.443,
                                well_depth=110.7))

species(name='CH3OO(82)',
        atoms='C:1 H:3 O:2',
        thermo=(NASA([100.00, 1031.35],
                     [ 3.58600855E+00,  6.15348645E-03,  1.33269290E-05,
                      -1.76581521E-08,  6.13210932E-12,  2.48233564E+02,
                       9.74096027E+00]),
                NASA([1031.35, 5000.00],
                     [ 4.35022282E+00,  1.07183275E-02, -4.26215078E-06,
                       7.89578335E-10, -5.53846326E-14, -3.09810145E+02,
                       4.08928223E+00])),
        transport=gas_transport(geom='nonlinear',
                                diam=3.69,
                                well_depth=417.0,
                                dipole=1.7,
                                rot_relax=2.0))

species(name='CH2O2(186)',
        atoms='C:1 H:2 O:2',
        thermo=(NASA([100.00, 926.79],
                     [ 3.62549592E+00,  8.44084155E-03, -6.02606121E-06,
                       3.72764464E-09, -1.08425552E-12,  2.48662045E+04,
                       8.51067544E+00]),
                NASA([926.79, 5000.00],
                     [ 3.96738638E+00,  6.48876415E-03, -2.09545261E-06,
                       3.45503828E-10, -2.22881817E-14,  2.48232961E+04,
                       6.99764587E+00])),
        transport=gas_transport(geom='nonlinear',
                                diam=5.391,
                                well_depth=384.897))

species(name='C2H2(348)',
        atoms='C:2 H:2',
        thermo=(NASA([100.00, 962.80],
                     [ 3.11331938E+00,  6.02058533E-03,  5.33031324E-06,
                      -1.10293378E-08,  4.62859887E-12,  2.62179845E+04,
                       4.37938268E+00]),
                NASA([962.80, 5000.00],
                     [ 5.02077795E+00,  4.22470269E-03, -1.42000136E-06,
                       2.56105133E-10, -1.84544863E-14,  2.55666188E+04,
                      -6.22588857E+00])),
        transport=gas_transport(geom='linear',
                                diam=4.1,
                                well_depth=209.0,
                                rot_relax=2.5))

species(name='C2H2(372)',
        atoms='C:2 H:2',
        thermo=(NASA([100.00, 1056.31],
                     [ 3.71873945E+00,  5.29666694E-03,  4.84652156E-07,
                      -2.87068798E-09,  1.13838341E-12,  4.81943574E+04,
                       3.98323402E+00]),
                NASA([1056.31, 5000.00],
                     [ 4.27652679E+00,  5.08092030E-03, -1.90203127E-06,
                       3.35275220E-10, -2.26452686E-14,  4.79707153E+04,
                       7.60862602E-01])),
        transport=gas_transport(geom='nonlinear',
                                diam=4.1,
                                well_depth=209.0,
                                rot_relax=2.5))

species(name='X(1)',
        atoms='X:1',
        thermo=(NASA([100.00, 1554.80],
                     [ 7.10139498E-03, -4.25619522E-05,  8.98533016E-08,
                      -7.80193649E-11,  2.32465471E-14, -8.76101712E-01,
                      -3.11211229E-02]),
                NASA([1554.80, 5000.00],
                     [ 1.60299900E-01, -2.52235409E-04,  1.14181275E-07,
                      -1.21471653E-11,  3.85790025E-16, -7.08100885E+01,
                      -9.09527530E-01])))

species(name='HX(19)',
        atoms='H:1 X:1',
        thermo=(NASA([100.00, 952.91],
                     [-3.80965452E-01,  5.47228709E-03,  2.60912778E-06,
                      -9.64961980E-09,  4.63946753E-12, -3.37659580E+03,
                       1.01725550E+00]),
                NASA([952.91, 5000.00],
                     [ 2.80339655E+00, -5.41047017E-04,  4.99507978E-07,
                      -7.54963647E-11,  3.06772366E-15, -4.31734521E+03,
                      -1.59436787E+01])))

species(name='OX(20)',
        atoms='O:1 X:1',
        thermo=(NASA([100.00, 888.26],
                     [-7.59007329E-01,  1.89867771E-02, -3.82470955E-05,
                       3.43554391E-08, -1.13972478E-11, -1.33398355E+04,
                       1.76015370E+00]),
                NASA([888.26, 5000.00],
                     [ 1.89892178E+00,  2.03297975E-03, -1.19978087E-06,
                       2.32684304E-10, -1.53511352E-14, -1.36153756E+04,
                      -9.64096026E+00])))

species(name='CH3X(21)',
        atoms='C:1 H:3 X:1',
        thermo=(NASA([100.00, 848.30],
                     [-1.21090496E+00,  2.92390681E-02, -4.49011079E-05,
                       3.86009808E-08, -1.30361041E-11, -2.49381461E+03,
                       6.80939750E+00]),
                NASA([848.30, 5000.00],
                     [ 1.62290877E+00,  1.12987268E-02, -5.08316908E-06,
                       9.46833581E-10, -6.42885536E-14, -2.80987951E+03,
                      -5.42501059E+00])))

species(name='HOX(22)',
        atoms='H:1 O:1 X:1',
        thermo=(NASA([100.00, 914.58],
                     [-1.29513706E+00,  3.36476246E-02, -7.07717851E-05,
                       6.54315116E-08, -2.19410183E-11, -1.73975042E+04,
                       4.37624874E+00]),
                NASA([914.58, 5000.00],
                     [ 2.43515780E+00,  4.64644986E-03, -2.40014139E-06,
                       4.26415498E-10, -2.60661215E-14, -1.75492542E+04,
                      -1.03865094E+01])))

species(name='H2OX(23)',
        atoms='H:2 O:1 X:1',
        thermo=(NASA([100.00, 912.85],
                     [-1.34340138E+00,  3.66695539E-02, -7.99480721E-05,
                       7.74125241E-08, -2.68665364E-11, -3.23490305E+04,
                       1.10237667E+01]),
                NASA([912.85, 5000.00],
                     [ 1.12158920E+00,  8.16639256E-03, -4.02358034E-06,
                       7.20420773E-10, -4.51442235E-14, -3.20615235E+04,
                       3.39615620E+00])))

species(name='CO2X(24)',
        atoms='C:1 O:2 X:1',
        thermo=(NASA([100.00, 953.60],
                     [ 3.09268416E+00,  5.29285051E-03,  8.99424169E-06,
                      -1.67126189E-08,  7.04895731E-12, -4.52128351E+04,
                      -5.10054525E+00]),
                NASA([953.60, 5000.00],
                     [ 5.99804988E+00,  2.27482238E-03, -6.81075329E-07,
                       1.34428306E-10, -1.11506248E-14, -4.61838333E+04,
                      -2.11650815E+01])))

species(name='OCX(25)',
        atoms='C:1 O:1 X:1',
        thermo=(NASA([100.00, 891.33],
                     [-1.38214670E+00,  3.75306103E-02, -8.29761135E-05,
                       8.09705358E-08, -2.85472623E-11, -2.72647866E+04,
                       4.35449609E+00]),
                NASA([891.33, 5000.00],
                     [ 1.38092053E+00,  8.05716548E-03, -4.64307501E-06,
                       8.91167184E-10, -5.90045403E-14, -2.70791180E+04,
                      -4.85325804E+00])))

species(name='CX(26)',
        atoms='C:1 X:1',
        thermo=(NASA([100.00, 1401.12],
                     [-6.04857932E-01,  1.10908424E-02, -1.34369871E-05,
                       7.18241020E-09, -1.40685955E-12,  2.07504263E+04,
                       1.48480596E+00]),
                NASA([1401.12, 5000.00],
                     [ 3.08077816E+00, -6.87491579E-04,  5.17603202E-07,
                      -9.73051930E-11,  6.24267331E-15,  1.98409426E+04,
                      -1.70992417E+01])))

species(name='CH2X(27)',
        atoms='C:1 H:2 X:1',
        thermo=(NASA([100.00, 1199.82],
                     [-1.02006594E+00,  2.03778552E-02, -2.17291076E-05,
                       1.15868543E-08, -2.38469979E-12,  6.90067811E+03,
                       2.99160459E+00]),
                NASA([1199.82, 5000.00],
                     [ 3.89285483E+00,  3.99892281E-03, -1.25227942E-06,
                       2.09081361E-10, -1.39642489E-14,  5.72175924E+03,
                      -2.16053707E+01])))

species(name='CHX(28)',
        atoms='C:1 H:1 X:1',
        thermo=(NASA([100.00, 1596.82],
                     [-9.66375239E-01,  1.63179003E-02, -1.75392280E-05,
                       8.64095863E-09, -1.55501450E-12,  7.52481273E+03,
                       2.54982370E+00]),
                NASA([1596.82, 5000.00],
                     [ 4.21481268E+00,  2.18383120E-04,  5.15662242E-07,
                      -1.20800791E-10,  8.35331125E-15,  6.26799734E+03,
                      -2.36254632E+01])))

species(name='CH4X(48)',
        atoms='C:1 H:4 X:1',
        thermo=(NASA([100.00, 886.29],
                     [-1.38687449E+00,  4.00450548E-02, -8.37917184E-05,
                       8.75651042E-08, -3.27875900E-11, -1.09112184E+04,
                       1.78811047E+01]),
                NASA([886.29, 5000.00],
                     [-2.16847811E+00,  1.99494198E-02, -9.80013650E-06,
                       1.83536669E-09, -1.22521982E-13, -9.84485611E+03,
                       2.67918007E+01])))

species(name='H2X(49)',
        atoms='H:2 X:1',
        thermo=(NASA([100.00, 911.33],
                     [-1.27856724E+00,  3.68010102E-02, -8.90296992E-05,
                       8.91132730E-08, -3.14511582E-11, -1.33397682E+03,
                       1.13160562E+01]),
                NASA([911.33, 5000.00],
                     [ 6.45631937E-01,  6.69563800E-03, -3.82690860E-06,
                       7.04725296E-10, -4.41024465E-14, -7.85256799E+02,
                       7.14633349E+00])))

species(name='COX(50)',
        atoms='C:1 O:1 X:1',
        thermo=(NASA([100.00, 929.00],
                     [ 3.35301865E+00,  2.26103969E-03,  2.26693939E-06,
                      -4.74058434E-09,  2.05873755E-12, -1.10950770E+04,
                      -7.42473656E+00]),
                NASA([929.00, 5000.00],
                     [ 4.10128731E+00,  1.49966159E-03, -4.76451778E-07,
                       7.90371698E-11, -5.45621582E-15, -1.13402784E+04,
                      -1.15510308E+01])))

species(name='C2H6X(52)',
        atoms='C:2 H:6 X:1',
        thermo=(NASA([100.00, 826.21],
                     [-1.73432373E+00,  4.32697501E-02, -6.15090991E-05,
                       5.73040408E-08, -2.14186318E-11, -1.40653271E+04,