units(length='cm', time='s', quantity='mol', act_energy='kcal/mol')

ideal_gas(name='gas',
          elements="H D T C Ci O Oi N Ne Ar He Si S Cl X",
          species="""n-heptane   Ar          He          Ne
                     N2          C2H4(2)     C4H8-1(3)   C4H8-2(4)
                     C4H6(7)     C6H8(9)     C4H6a(79)   C6H10d(84)
                     C8H12(99)   C6H9(136)   S(163)      S(168)
                     S(171)      S(181)      S(185)      S(189)
                     C6H8(196)   S(261)      S(270)      S(284)
                     S(294)      S(295)      S(309)      S(320)
                     S(435)      S(627)      S(647)      S(687)
                     S(765)      S(766)      S(800)      S(802)
                     S(902)      S(1019)     S(1145)     S(1283)
                     S(1299)     C2H6(1518)  S(1877)     S(1940)
                     S(1960)     S(1982)     S(2398)     S(2470)
                     S(2496)     S(2796)     S(2988)     S(3313)
                     S(3321)     S(3335)     S(3351)     S(3403)
                     S(3779)     S(3965)     S(5352)     S(5353)""",
          reactions='gas-*',
          initial_state=state(temperature=300.0, pressure=OneAtm))

ideal_interface(name='surface1',
                elements="H D T C Ci O Oi N Ne Ar He Si S Cl X",
                species="""X(1)        HX(5)       C2H3X(37)   C2H5X(40)
                          C4H7X(41)   C4H5X(80)   C4H5X(81)   C6H9X(159)
                          SX(908)     SX(910)     SX(913)     SX(914)
                          SX(916)     SX(1215)    SX(1218)    SX(1221)
                          SX(1618)    SX(1620)    SX(1955)    SX(1959)
                          SX(1975)    SX(2167)    SX(2181)    SX(2182)
                          SX(2196)    SX(2202)    SX(2299)    SX(2301)
                          SX(2319)    SX(2320)    SX(2333)    SX(2421)
                          SX(2422)    SX(2424)    SX(2535)    SX(2537)
                          SX(2541)    SX(2561)    SX(2577)    SX(2578)
                          SX(2590)    SX(2591)    SX(2663)    SX(2667)
                          SX(2668)    SX(2825)    SX(2877)    SX(2878)
                          SX(2981)    SX(3330)    SX(3334)    SX(3348)
                          SX(3349)    SX(3368)    SX(3369)    SX(3375)
                          SX(3381)    SX(3384)    SX(3385)    SX(3513)
                          SX(3530)    SX(3951)""",
                site_density=2.72e-09,
                phases="gas",
          reactions='surface1-*',
                initial_state=state(temperature=300.0, pressure=OneAtm))

#-------------------------------------------------------------------------------
# Element data
#-------------------------------------------------------------------------------

element(symbol=u'X', atomic_mass=195.083)
element(symbol=u'Ci', atomic_mass=13.003)
element(symbol=u'D', atomic_mass=2.014)
element(symbol=u'Oi', atomic_mass=18.0)
element(symbol=u'T', atomic_mass=3.016)
#-------------------------------------------------------------------------------
# Species data
#-------------------------------------------------------------------------------

species(name=u'n-heptane',
        atoms='H:16 C:7',
        thermo=(NASA([100.00, 1262.73],
                     [-2.91681405E-03,  7.69373649E-02, -3.48025563E-05,
                       1.86095180E-09,  2.01573617E-12, -2.57829342E+04,
                       3.00312148E+01]),
                NASA([1262.73, 5000.00],
                     [ 1.38377915E+01,  4.85945016E-02, -1.95474548E-05,
                       3.52837178E-09, -2.39064676E-13, -3.05141556E+04,
                      -4.48642836E+01])))

species(name=u'Ar',
        atoms='Ar:1',
        thermo=(NASA([200.00, 1000.00],
                     [ 2.50000000E+00,  0.00000000E+00,  0.00000000E+00,
                       0.00000000E+00,  0.00000000E+00, -7.45375000E+02,
                       4.37967000E+00]),
                NASA([1000.00, 6000.00],
                     [ 2.50000000E+00,  0.00000000E+00,  0.00000000E+00,
                       0.00000000E+00,  0.00000000E+00, -7.45375000E+02,
                       4.37967000E+00])))

species(name=u'He',
        atoms='He:1',
        thermo=(NASA([200.00, 1000.00],
                     [ 2.50000000E+00,  0.00000000E+00,  0.00000000E+00,
                       0.00000000E+00,  0.00000000E+00, -7.45375000E+02,
                       9.28724000E-01]),
                NASA([1000.00, 6000.00],
                     [ 2.50000000E+00,  0.00000000E+00,  0.00000000E+00,
                       0.00000000E+00,  0.00000000E+00, -7.45375000E+02,
                       9.28724000E-01])))

species(name=u'Ne',
        atoms='Ne:1',
        thermo=(NASA([200.00, 1000.00],
                     [ 2.50000000E+00,  0.00000000E+00,  0.00000000E+00,
                       0.00000000E+00,  0.00000000E+00, -7.45375000E+02,
                       3.35532000E+00]),
                NASA([1000.00, 6000.00],
                     [ 2.50000000E+00,  0.00000000E+00,  0.00000000E+00,
                       0.00000000E+00,  0.00000000E+00, -7.45375000E+02,
                       3.35532000E+00])))

species(name=u'N2',
        atoms='N:2',
        thermo=(NASA([200.00, 1000.00],
                     [ 3.53101000E+00, -1.23661000E-04, -5.02999000E-07,
                       2.43531000E-09, -1.40881000E-12, -1.04698000E+03,
                       2.96747000E+00]),
                NASA([1000.00, 6000.00],
                     [ 2.95258000E+00,  1.39690000E-03, -4.92632000E-07,
                       7.86010000E-11, -4.60755000E-15, -9.23949000E+02,
                       5.87189000E+00])))

species(name=u'C2H4(2)',
        atoms='H:4 C:2',
        thermo=(NASA([100.00, 979.36],
                     [ 3.97471606E+00, -4.75844285E-03,  4.16783770E-05,
                      -4.51392516E-08,  1.54224761E-11,  4.91540746E+03,
                       3.62430844E+00]),
                NASA([979.36, 5000.00],
                     [ 3.55660610E+00,  1.10627464E-02, -4.17019079E-06,
                       7.85586770E-10, -5.70060829E-14,  4.32046489E+03,
                       2.17719479E+00])))

species(name=u'C4H8-1(3)',
        atoms='H:8 C:4',
        thermo=(NASA([100.00, 1007.28],
                     [ 2.58772906E+00,  2.32777969E-02,  1.93412349E-05,
                      -3.55496333E-08,  1.36906009E-11, -1.91872926E+03,
                       1.45750618E+01]),
                NASA([1007.28, 5000.00],
                     [ 7.20517168E+00,  2.36361568E-02, -9.03150028E-06,
                       1.65392666E-09, -1.16019260E-13, -3.79733937E+03,
                      -1.24426257E+01])))

species(name=u'C4H8-2(4)',
        atoms='H:8 C:4',
        thermo=(NASA([100.00, 1157.79],
                     [ 2.51998327E+00,  2.76812799E-02,  9.43783469E-07,
                      -1.25009101E-08,  4.67144666E-12, -3.34374767E+03,
                       1.30195623E+01]),
                NASA([1157.79, 5000.00],
                     [ 6.04225708E+00,  2.60072350E-02, -1.04843374E-05,
                       1.90880922E-09, -1.30600505E-13, -4.86276511E+03,
                      -7.52715109E+00])))

species(name=u'C4H6(7)',
        atoms='H:6 C:4',
        thermo=(NASA([100.00, 946.05],
                     [ 2.80599310E+00,  1.02584471E-02,  6.17260255E-05,
                      -9.01642687E-08,  3.59116961E-11,  1.16584972E+04,
                       1.20621434E+01]),
                NASA([946.05, 5000.00],
                     [ 1.24693720E+01,  1.00553901E-02, -2.41206872E-06,
                       4.57077303E-10, -3.93160571E-14,  8.01077795E+03,
                      -4.36374720E+01])))

species(name=u'C6H8(9)',
        atoms='H:8 C:6',
        thermo=(NASA([100.00, 941.22],
                     [ 1.38427980E+00,  4.14411503E-02,  1.94287417E-05,
                      -6.16688700E-08,  2.86503633E-11,  1.76317461E+04,
                       1.93257509E+01]),
                NASA([941.22, 5000.00],
                     [ 1.69619680E+01,  1.57221707E-02, -4.10118367E-06,
                       6.95736344E-10, -5.26521484E-14,  1.29061672E+04,
                      -6.44097553E+01])))

species(name=u'C4H6a(79)',
        atoms='H:6 C:4',
        thermo=(NASA([100.00, 950.38],
                     [ 3.41327601E+00, -4.60830638E-03,  9.57205603E-05,
                      -1.18800574E-07,  4.44495312E-11,  1.74039828E+04,
                       1.01517556E+01]),
                NASA([950.38, 5000.00],
                     [ 9.72156091E+00,  1.36879055E-02, -3.93842260E-06,
                       7.58710118E-10, -6.16013131E-14,  1.41795804E+04,
                      -3.06164436E+01])))

species(name=u'C6H10d(84)',
        atoms='H:10 C:6',
        thermo=(NASA([100.00, 969.70],
                     [ 2.39493639E+00,  1.31308716E-02,  1.02019898E-04,
                      -1.35266841E-07,  5.06735576E-11, -2.55363631E+03,
                       1.63461006E+01]),
                NASA([969.70, 5000.00],
                     [ 1.20193596E+01,  2.96991246E-02, -1.06504175E-05,
                       2.03502649E-09, -1.52378829E-13, -7.06570658E+03,
                      -4.34309725E+01])))

species(name=u'C8H12(99)',
        atoms='H:12 C:8',
        thermo=(NASA([100.00, 1041.60],
                     [ 1.41090931E-01,  7.09135795E-02, -2.05517688E-05,
                      -2.03540315E-08,  1.17469079E-11,  3.55888311E+04,
                       3.23747338E+01]),
                NASA([1041.60, 5000.00],
                     [ 1.61333391E+01,  3.83523632E-02, -1.52113141E-05,
                       2.82187594E-09, -1.98606916E-13,  3.06921460E+04,
                      -5.29437572E+01])))

species(name=u'C6H9(136)',
        atoms='H:9 C:6',
        thermo=(NASA([100.00, 995.34],
                     [ 1.62522454E+00,  3.93401586E-02,  1.78978273E-05,
                      -4.78993847E-08,  2.01402388E-11,  1.69431093E+04,
                       2.25224222E+01]),
                NASA([995.34, 5000.00],
                     [ 1.22021413E+01,  2.74567638E-02, -1.03424270E-05,
                       1.92565312E-09, -1.38069748E-13,  1.33207104E+04,
                      -3.60755769E+01])))

species(name=u'S(163)',
        atoms='H:14 C:10',
        thermo=(NASA([100.00, 1005.33],
                     [-8.70330413E-01,  8.89793335E-02, -2.38552724E-05,
                      -3.15628111E-08,  1.81664076E-11,  3.78335548E+04,
                       4.06086741E+01]),
                NASA([1005.33, 5000.00],
                     [ 2.02610588E+01,  4.45995858E-02, -1.68699763E-05,
                       3.08363695E-09, -2.16972192E-13,  3.15786714E+04,
                      -7.14276628E+01])))

species(name=u'S(168)',
        atoms='H:14 C:10',
        thermo=(NASA([100.00, 1000.82],
                     [-6.31768052E-02,  6.63327958E-02,  3.52866104E-05,
                      -8.69374671E-08,  3.59821837E-11,  1.49219107E+04,
                       3.14585536E+01]),
                NASA([1000.82, 5000.00],
                     [ 1.83633542E+01,  4.74202731E-02, -1.83998113E-05,
                       3.46693133E-09, -2.49801392E-13,  8.49241227E+03,
                      -7.11484830E+01])))

species(name=u'S(171)',
        atoms='H:14 C:10',
        thermo=(NASA([100.00, 970.10],
                     [-9.78988949E-03,  5.86706729E-02,  7.01434593E-05,
                      -1.32675939E-07,  5.46186119E-11,  1.25292176E+04,
                       3.22617600E+01]),
                NASA([970.10, 5000.00],
                     [ 2.20659649E+01,  4.04480551E-02, -1.42487489E-05,
                       2.67818961E-09, -1.98556600E-13,  4.82039373E+03,
                      -9.12271962E+01])))

species(name=u'S(181)',
        atoms='H:16 C:12',
        thermo=(NASA([100.00, 985.43],
                     [-1.88304682E+00,  1.07042194E-01, -2.70554103E-05,
                      -4.30549514E-08,  2.47781880E-11,  4.00783494E+04,
                       4.74620913E+01]),
                NASA([985.43, 5000.00],
                     [ 2.44922294E+01,  5.06805346E-02, -1.84366585E-05,
                       3.32433721E-09, -2.33631810E-13,  3.24185269E+04,
                      -9.18863874E+01])))

species(name=u'S(185)',
        atoms='H:16 C:12',
        thermo=(NASA([100.00, 992.45],
                     [-1.36726188E+00,  9.09276671E-02,  1.69902518E-05,
                      -8.53947805E-08,  3.84301239E-11,  2.11993195E+04,
                       3.87738109E+01]),
                NASA([992.45, 5000.00],
                     [ 2.42201531E+01,  5.14040751E-02, -1.94056379E-05,
                       3.62910452E-09, -2.61722320E-13,  1.29880616E+04,
                      -1.00257920E+02])))

species(name=u'S(189)',
        atoms='H:16 C:12',
        thermo=(NASA([100.00, 961.97],
                     [-1.50816176E+00,  8.75229397E-02,  4.32196782E-05,
                      -1.26059866E-07,  5.63926918E-11,  3.17299871E+04,
                       4.22614545E+01]),
                NASA([961.97, 5000.00],
                     [ 2.93787122E+01,  4.15661279E-02, -1.37239862E-05,
                       2.52954162E-09, -1.88135179E-13,  2.19715065E+04,
                      -1.25386845E+02])))

species(name=u'C6H8(196)',
        atoms='H:8 C:6',
        thermo=(NASA([100.00, 972.94],
                     [ 1.82686070E+00,  3.47046353E-02,  2.41070171E-05,
                      -5.44847920E-08,  2.29388832E-11,  1.99100661E+04,
                       1.81393315E+01]),
                NASA([972.94, 5000.00],
                     [ 1.21686202E+01,  2.40472785E-02, -8.58151834E-06,
                       1.57034031E-09, -1.12795334E-13,  1.63897115E+04,
                      -3.92195169E+01])))

species(name=u'S(261)',
        atoms='H:14 C:10',
        thermo=(NASA([100.00, 1003.26],
                     [-1.03984048E+00,  9.30824641E-02, -3.27200043E-05,
                      -2.43703234E-08,  1.61253460E-11,  3.76511179E+04,
                       3.93183848E+01]),
                NASA([1003.26, 5000.00],
                     [ 2.09856416E+01,  4.37157160E-02, -1.63963376E-05,
                       2.98188082E-09, -2.09257609E-13,  3.12966573E+04,
                      -7.66570910E+01])))

species(name=u'S(270)',
        atoms='H:14 C:10',
        thermo=(NASA([100.00, 968.43],
                     [-1.78657670E-01,  6.27636610E-02,  6.13275679E-05,
                      -1.25568699E-07,  5.26247225E-11,  1.23467547E+04,
                       3.16624716E+01]),
                NASA([968.43, 5000.00],
                     [ 2.28001036E+01,  3.95488872E-02, -1.37666755E-05,
                       2.57450736E-09, -1.90686366E-13,  4.53405575E+03,
                      -9.58178615E+01])))

species(name=u'S(284)',
        atoms='H:16 C:12',
        thermo=(NASA([100.00, 983.18],
                     [-2.05097756E+00,  1.11125066E-01, -3.58412237E-05,
                      -3.59772249E-08,  2.27919017E-11,  3.98958457E+04,
                       4.68593887E+01]),
                NASA([983.18, 5000.00],
                     [ 2.52169911E+01,  4.97969231E-02, -1.79633975E-05,
                       3.22270937E-09, -2.25930287E-13,  3.21362552E+04,
                      -9.64240230E+01])))

species(name=u'S(294)',
        atoms='H:16 C:12',
        thermo=(NASA([100.00, 965.51],
                     [-1.48010848E+00,  8.73195699E-02,  4.32084939E-05,
                      -1.24323023E-07,  5.52324518E-11,  1.86240551E+04,
                       3.89687652E+01]),
                NASA([965.51, 5000.00],
                     [ 2.86828957E+01,  4.34912924E-02, -1.47497714E-05,
                       2.73150662E-09, -2.02190259E-13,  9.01787604E+03,
                      -1.25075357E+02])))

species(name=u'S(295)',
        atoms='H:16 C:12',
        thermo=(NASA([100.00, 1029.62],
                     [-1.39422662E+00,  9.33874007E-02,  5.18274062E-06,
                      -6.73313605E-08,  3.01045060E-11,  2.34099191E+04,
                       3.84701054E+01]),
                NASA([1029.62, 5000.00],
                     [ 2.29264927E+01,  5.57246220E-02, -2.27288480E-05,
                       4.34065058E-09, -3.12487849E-13,  1.53898378E+04,
                      -9.41993310E+01])))

species(name=u'S(309)',
        atoms='H:16 C:12',
        thermo=(NASA([100.00, 980.77],
                     [-2.21845665E+00,  1.15202302E-01, -4.46058253E-05,
                      -2.89292454E-08,  2.08193354E-11,  3.97133228E+04,
                       4.48687920E+01]),
                NASA([980.77, 5000.00],
                     [ 2.59409200E+01,  4.89148103E-02, -1.74910345E-05,
                       3.12129948E-09, -2.18247198E-13,  3.18543069E+04,
                      -1.02343316E+02])))

species(name=u'S(320)',
        atoms='H:16 C:12',
        thermo=(NASA([100.00, 989.29],
                     [-1.49871027E+00,  8.97231513E-02,  3.13728211E-05,
                      -1.05849951E-07,  4.65472901E-11,  2.08342656E+04,
                       3.86324941E+01]),
                NASA([989.29, 5000.00],
                     [ 2.71231573E+01,  4.82447418E-02, -1.83146882E-05,
                       3.49879125E-09, -2.57494969E-13,  1.15378770E+04,
                      -1.17506583E+02])))

species(name=u'S(435)',
        atoms='H:16 C:12',
        thermo=(NASA([100.00, 1020.98],
                     [-7.95245691E-01,  7.73824767E-02,  4.53735316E-05,
                      -1.04382463E-07,  4.19763052E-11,  3.03170328E+04,
                       3.43997243E+01]),
                NASA([1020.98, 5000.00],
                     [ 2.11534722E+01,  5.79180459E-02, -2.37685864E-05,
                       4.58523568E-09, -3.32981406E-13,  2.23678325E+04,
                      -8.89264056E+01])))

species(name=u'S(627)',
        atoms='H:16 C:12',
        thermo=(NASA([100.00, 1082.71],
                     [-1.42165646E+00,  1.00366054E-01, -2.86690015E-05,
                      -2.45430021E-08,  1.37134617E-11,  2.67269131E+04,
                       3.45501008E+01]),
                NASA([1082.71, 5000.00],
                     [ 1.94956582E+01,  6.02181764E-02, -2.44875026E-05,
                       4.55572743E-09, -3.18938634E-13,  2.00211421E+04,
                      -7.80762928E+01])))

species(name=u'S(647)',
        atoms='H:16 C:12',
        thermo=(NASA([100.00, 967.86],
                     [-1.32209228E+00,  8.47378361E-02,  4.59787499E-05,
                      -1.23781967E-07,  5.42497769E-11,  2.23199283E+04,
                       3.57020946E+01]),
                NASA([967.86, 5000.00],
                     [ 2.71811605E+01,  4.57697461E-02, -1.58000646E-05,
                       2.92345730E-09, -2.14846023E-13,  1.31102045E+04,
                      -1.19952912E+02])))

species(name=u'S(687)',
        atoms='H:15 C:12',
        thermo=(NASA([100.00, 964.27],
                     [-1.56359797E+00,  9.39322428E-02,  1.38500430E-05,
                      -9.10661781E-08,  4.32849499E-11,  4.25563792E+04,
                       3.88648853E+01]),
                NASA([964.27, 5000.00],
                     [ 2.71616288E+01,  4.35451465E-02, -1.47486650E-05,
                       2.66908127E-09, -1.93177224E-13,  3.38193832E+04,
                      -1.15251087E+02])))

species(name=u'S(765)',
        atoms='H:16 C:12',
        thermo=(NASA([100.00, 990.56],
                     [-7.78433754E-01,  7.50370135E-02,  5.68119627E-05,
                      -1.22020635E-07,  5.01475379E-11,  2.81068748E+04,
                       3.47401599E+01]),
                NASA([990.56, 5000.00],
                     [ 2.25283155E+01,  5.34634348E-02, -2.03696799E-05,
                       3.85608484E-09, -2.80772764E-13,  1.99306110E+04,
                      -9.54445897E+01])))

species(name=u'S(766)',
        atoms='H:16 C:12',
        thermo=(NASA([100.00, 963.27],
                     [-8.26933887E-01,  6.74643192E-02,  9.88514634E-05,
                      -1.79557358E-07,  7.40167572E-11,  2.49337186E+04,
                       3.67273646E+01]),
                NASA([963.27, 5000.00],
                     [ 2.79022252E+01,  4.43357812E-02, -1.48892740E-05,
                       2.80627414E-09, -2.12030992E-13,  1.49372091E+04,
                      -1.23958458E+02])))

species(name=u'S(800)',
        atoms='H:15 C:12',
        thermo=(NASA([100.00, 1011.28],
                     [-8.61269851E-01,  7.90929567E-02,  4.17814666E-05,
                      -1.02589996E-07,  4.20286286E-11,  3.33878028E+04,
                       3.78307934E+01]),
                NASA([1011.28, 5000.00],
                     [ 2.13825485E+01,  5.68993110E-02, -2.28827978E-05,
                       4.36886702E-09, -3.16051452E-13,  2.55247820E+04,
                      -8.63650669E+01])))

species(name=u'S(802)',
        atoms='H:15 C:12',
        thermo=(NASA([100.00, 993.54],
                     [-1.21346258E+00,  8.43526020E-02,  3.95110756E-05,
                      -1.09218661E-07,  4.65596299E-11,  3.07992502E+04,
                       3.58638913E+01]),
                NASA([993.54, 5000.00],
                     [ 2.48582341E+01,  5.15640076E-02, -1.99549339E-05,
                       3.80148454E-09, -2.77628001E-13,  2.20562691E+04,
                      -1.07675478E+02])))

species(name=u'S(902)',
        atoms='H:16 C:12',
        thermo=(NASA([100.00, 983.47],
                     [-7.04070536E-01,  7.09577812E-02,  7.30121256E-05,
                      -1.41077371E-07,  5.73818279E-11,  2.75085507E+04,
                       3.64963053E+01]),
                NASA([983.47, 5000.00],
                     [ 2.33695967E+01,  5.23654558E-02, -1.96117581E-05,
                       3.71947252E-09, -2.72848579E-13,  1.89373969E+04,
                      -9.87463761E+01])))

species(name=u'S(1019)',
        atoms='H:16 C:12',
        thermo=(NASA([100.00, 986.81],
                     [-1.58942639E+00,  9.66108811E-02,  4.38238808E-06,
                      -7.51919667E-08,  3.56680424E-11,  2.22579493E+04,
                       3.42763923E+01]),
                NASA([986.81, 5000.00],
                     [ 2.50352801E+01,  5.01811066E-02, -1.85129907E-05,
                       3.42197162E-09, -2.45594998E-13,  1.40091654E+04,
                      -1.08989338E+02])))

species(name=u'S(1145)',
        atoms='H:15 C:12',
        thermo=(NASA([100.00, 994.96],
                     [-9.10525753E-01,  7.23065908E-02,  7.86529115E-05,
                      -1.50118451E-07,  6.04728055E-11,  3.34535297E+04,
                       3.72742060E+01]),
                NASA([994.96, 5000.00],
                     [ 2.59409054E+01,  5.12026508E-02, -2.04595453E-05,
                       4.01923029E-09, -2.99921063E-13,  2.38116792E+04,
                      -1.13734786E+02])))

species(name=u'S(1283)',
        atoms='H:14 C:10',
        thermo=(NASA([100.00, 971.20],
                     [-2.04845480E-02,  6.01795959E-02,  6.41085138E-05,
                      -1.25045744E-07,  5.16519091E-11,  1.60426214E+04,
                       2.83952673E+01]),
                NASA([971.20, 5000.00],
                     [ 2.12998282E+01,  4.18249981E-02, -1.48156747E-05,
                       2.76616216E-09, -2.03318196E-13,  8.62572638E+03,
                      -9.07037185E+01])))

species(name=u'S(1299)',
        atoms='H:14 C:10',
        thermo=(NASA([100.00, 1017.44],
                     [-1.42589581E-02,  6.76019069E-02,  2.58314168E-05,
                      -7.28760291E-08,  3.00151941E-11,  1.80545887E+04,
                       2.85471349E+01]),
                NASA([1017.44, 5000.00],
                     [ 1.66308900E+01,  5.04173057E-02, -1.99752836E-05,
                       3.75343660E-09, -2.67874487E-13,  1.21698867E+04,
                      -6.43179181E+01])))

species(name=u'C2H6(1518)',
        atoms='H:6 C:2',
        thermo=(NASA([100.00, 1012.42],
                     [ 3.72239291E+00,  1.65083841E-03,  3.44175530E-05,
                      -3.76858229E-08,  1.24450657E-11, -1.15575901E+04,
                       4.68247999E+00]),
                NASA([1012.42, 5000.00],
                     [ 2.82848257E+00,  1.73040568E-02, -6.73334245E-06,
                       1.23742024E-09, -8.65676410E-14, -1.19978080E+04,
                       5.93811707E+00])))

species(name=u'S(1877)',
        atoms='H:15 C:12',
        thermo=(NASA([100.00, 944.80],
                     [-1.42386603E+00,  9.56286177E-02, -1.16205849E-06,
                      -7.24517366E-08,  3.70003109E-11,  3.09187702E+04,
                       4.16083534E+01]),
                NASA([944.80, 5000.00],
                     [ 2.42694051E+01,  4.53933806E-02, -1.43505797E-05,
                       2.43691382E-09, -1.69227726E-13,  2.34508804E+04,
                      -9.47156351E+01])))

species(name=u'S(1940)',
        atoms='H:15 C:12',
        thermo=(NASA([100.00, 1039.42],
                     [-3.79101977E-01,  6.94883755E-02,  5.46704409E-05,
                      -1.06219282E-07,  4.07187778E-11,  3.28802402E+04,
                       2.80685483E+01]),
                NASA([1039.42, 5000.00],
                     [ 1.85391186E+01,  6.10238004E-02, -2.59614991E-05,
                       5.04720591E-09, -3.65866468E-13,  2.54718922E+04,
                      -8.06510480E+01])))

species(name=u'S(1960)',
        atoms='H:16 C:12',
        thermo=(NASA([100.00, 1014.81],
                     [-1.51335752E+00,  9.34592317E-02,  1.56899925E-05,
                      -8.27605686E-08,  3.64318028E-11,  1.66086944E+04,
                       3.53843013E+01]),
                NASA([1014.81, 5000.00],
                     [ 2.44564459E+01,  5.50816252E-02, -2.21619821E-05,
                       4.23817650E-09, -3.06964630E-13,  8.04308557E+03,
                      -1.06520042E+02])))

species(name=u'S(1982)',
        atoms='H:12 C:8',
        thermo=(NASA([100.00, 1066.82],
                     [-6.90279206E-02,  7.77631354E-02, -4.25469002E-05,
                       2.07979121E-09,  4.19202863E-12,  1.30198536E+04,
                       2.96530167E+01]),
                NASA([1066.82, 5000.00],
                     [ 1.62725496E+01,  3.71185641E-02, -1.44020029E-05,
                       2.61623348E-09, -1.80996976E-13,  8.35933475E+03,
                      -5.57441245E+01])))

species(name=u'S(2398)',
        atoms='H:16 C:12',
        thermo=(NASA([100.00, 962.36],
                     [-1.72555721E+00,  1.04798614E-01, -2.54283511E-05,
                      -4.50420669E-08,  2.62786193E-11,  1.67282664E+04,
                       4.11326584E+01]),
                NASA([962.36, 5000.00],
                     [ 2.36714521E+01,  4.92292711E-02, -1.67349325E-05,
                       2.91441936E-09, -2.01883289E-13,  9.52507385E+03,
                      -9.24464305E+01])))

species(name=u'S(2470)',
        atoms='H:15 C:12',
        thermo=(NASA([100.00, 2278.29],
                     [ 3.15879478E+00,  8.14780425E-02, -2.55282384E-05,
                      -2.24230859E-09,  1.24990841E-12,  3.75948623E+04,
                      -4.77373581E-01]),
                NASA([2278.29, 5000.00],
                     [ 5.48140506E+01,  3.07060100E-02, -1.83829735E-05,
                       3.35758784E-09, -2.08493012E-13,  3.69751505E+03,
                      -3.14955225E+02])))

species(name=u'S(2496)',
        atoms='H:15 C:12',
        thermo=(NASA([100.00, 1055.87],
                     [-8.68792749E-01,  8.47329956E-02,  8.68342554E-06,
                      -6.09427937E-08,  2.57959729E-11,  3.90607916E+04,
                       3.22868866E+01]),
                NASA([1055.87, 5000.00],
                     [ 1.93506331E+01,  5.80416326E-02, -2.42965671E-05,
                       4.64481303E-09, -3.32150212E-13,  3.20089949E+04,
                      -7.95332096E+01])))

species(name=u'S(2796)',
        atoms='H:16 C:12',
        thermo=(NASA([100.00, 1003.16],
                     [-1.60699166E+00,  9.95706365E-02, -1.12109686E-05,
                      -5.51891702E-08,  2.76614593E-11,  1.02570323E+04,
                       3.92941978E+01]),
                NASA([1003.16, 5000.00],
                     [ 2.38172492E+01,  5.17255681E-02, -1.97140332E-05,
                       3.65679614E-09, -2.60613167E-13,  2.46260344E+03,
                      -9.68684398E+01])))

species(name=u'S(2988)',
        atoms='H:12 C:8',
        thermo=(NASA([100.00, 1020.30],
                     [ 2.31060963E-01,  6.88445781E-02, -1.69397007E-05,
                      -2.45734595E-08,  1.35804917E-11,  1.27159096E+04,
                       3.07941143E+01]),
                NASA([1020.30, 5000.00],
                     [ 1.61090754E+01,  3.67775420E-02, -1.41676502E-05,
                       2.60782611E-09, -1.83582705E-13,  7.90488862E+03,
                      -5.38257242E+01])))

species(name=u'S(3313)',
        atoms='H:15 C:12',
        thermo=(NASA([100.00, 956.78],
                     [-4.60744818E-01,  6.11336941E-02,  9.78562408E-05,
                      -1.75388932E-07,  7.26296852E-11,  3.80179885E+04,
                       3.87008177E+01]),
                NASA([956.78, 5000.00],
                     [ 2.69603384E+01,  3.89187927E-02, -1.22160217E-05,
                       2.27174318E-09, -1.73316744E-13,  2.85404514E+04,
                      -1.14485848E+02])))

species(name=u'S(3321)',
        atoms='H:15 C:12',
        thermo=(NASA([100.00, 978.94],
                     [-1.25273631E+00,  8.35199242E-02,  4.27828549E-05,
                      -1.17847265E-07,  5.12547697E-11,  3.62786993E+04,
                       4.03904348E+01]),
                NASA([978.94, 5000.00],
                     [ 2.71098191E+01,  4.49024656E-02, -1.64490814E-05,
                       3.12494602E-09, -2.31365270E-13,  2.70230222E+04,