units(length='cm', time='s', quantity='mol', act_energy='kcal/mol')

ideal_gas(name='gas',
          elements="H D T C Ci O Oi N Ne Ar He Si S Cl X",
          species="""n-heptane   Ar          He          Ne
                     N2          C2H4(2)     C4H8-1(3)   C4H8-2(4)
                     C4H6(7)     C6H8(9)     H2(68)      C8H10(113)
                     S(181)      S(185)      S(244)      S(264)
                     S(932)      S(937)      S(1012)     C7H8(1239)
                     S(1530)     S(1652)     S(1778)     S(1997)
                     S(2160)""",
          reactions='gas-*',
          initial_state=state(temperature=300.0, pressure=OneAtm))

ideal_interface(name='surface1',
                elements="H D T C Ci O Oi N Ne Ar He Si S Cl X",
                species="""X(1)        HX(5)       C2H3X(37)   C4H5X(80)
                          C4H5X(81)   C6H7X(132)  C6H7X(133)  C6H7X(134)
                          C6H9X(192)  SX(421)     SX(423)     SX(424)
                          SX(425)     SX(426)     SX(427)     SX(428)
                          SX(429)     SX(433)     SX(434)     SX(555)
                          SX(556)     SX(557)     SX(558)     SX(559)
                          SX(560)     SX(561)     SX(562)     SX(565)
                          SX(567)     SX(585)     C6H7X(599)  C8H9X(721)
                          C8H9X(722)  C8H9X(723)  C8H9X(724)  SX(826)
                          SX(837)     SX(844)     SX(845)     SX(850)
                          SX(851)     SX(852)     SX(911)     SX(915)
                          SX(929)     SX(1191)    SX(1195)    SX(1196)
                          SX(1205)    SX(1206)    SX(1226)    SX(1228)
                          SX(1231)    SX(1291)    SX(1292)    SX(1296)
                          SX(1395)    SX(1962)""",
                site_density=2.72e-09,
                phases="gas",
          reactions='surface1-*',
                initial_state=state(temperature=300.0, pressure=OneAtm))

#-------------------------------------------------------------------------------
# Element data
#-------------------------------------------------------------------------------

element(symbol=u'X', atomic_mass=195.083)
element(symbol=u'Ci', atomic_mass=13.003)
element(symbol=u'D', atomic_mass=2.014)
element(symbol=u'Oi', atomic_mass=18.0)
element(symbol=u'T', atomic_mass=3.016)
#-------------------------------------------------------------------------------
# Species data
#-------------------------------------------------------------------------------

species(name=u'n-heptane',
        atoms='H:16 C:7',
        thermo=(NASA([100.00, 1262.75],
                     [-2.93512125E-03,  7.69375610E-02, -3.48031525E-05,
                       1.86160506E-09,  2.01550529E-12, -2.57829334E+04,
                       3.00312819E+01]),
                NASA([1262.75, 5000.00],
                     [ 1.38379971E+01,  4.85941816E-02, -1.95472819E-05,
                       3.52833289E-09, -2.39061569E-13, -3.05142526E+04,
                      -4.48654615E+01])))

species(name=u'Ar',
        atoms='Ar:1',
        thermo=(NASA([200.00, 1000.00],
                     [ 2.50000000E+00,  0.00000000E+00,  0.00000000E+00,
                       0.00000000E+00,  0.00000000E+00, -7.45375000E+02,
                       4.37967000E+00]),
                NASA([1000.00, 6000.00],
                     [ 2.50000000E+00,  0.00000000E+00,  0.00000000E+00,
                       0.00000000E+00,  0.00000000E+00, -7.45375000E+02,
                       4.37967000E+00])))

species(name=u'He',
        atoms='He:1',
        thermo=(NASA([200.00, 1000.00],
                     [ 2.50000000E+00,  0.00000000E+00,  0.00000000E+00,
                       0.00000000E+00,  0.00000000E+00, -7.45375000E+02,
                       9.28724000E-01]),
                NASA([1000.00, 6000.00],
                     [ 2.50000000E+00,  0.00000000E+00,  0.00000000E+00,
                       0.00000000E+00,  0.00000000E+00, -7.45375000E+02,
                       9.28724000E-01])))

species(name=u'Ne',
        atoms='Ne:1',
        thermo=(NASA([200.00, 1000.00],
                     [ 2.50000000E+00,  0.00000000E+00,  0.00000000E+00,
                       0.00000000E+00,  0.00000000E+00, -7.45375000E+02,
                       3.35532000E+00]),
                NASA([1000.00, 6000.00],
                     [ 2.50000000E+00,  0.00000000E+00,  0.00000000E+00,
                       0.00000000E+00,  0.00000000E+00, -7.45375000E+02,
                       3.35532000E+00])))

species(name=u'N2',
        atoms='N:2',
        thermo=(NASA([200.00, 1000.00],
                     [ 3.53101000E+00, -1.23661000E-04, -5.02999000E-07,
                       2.43531000E-09, -1.40881000E-12, -1.04698000E+03,
                       2.96747000E+00]),
                NASA([1000.00, 6000.00],
                     [ 2.95258000E+00,  1.39690000E-03, -4.92632000E-07,
                       7.86010000E-11, -4.60755000E-15, -9.23949000E+02,
                       5.87189000E+00])))

species(name=u'C2H4(2)',
        atoms='H:4 C:2',
        thermo=(NASA([100.00, 979.37],
                     [ 3.97469045E+00, -4.75813325E-03,  4.16772624E-05,
                      -4.51377676E-08,  1.54218287E-11,  4.91540855E+03,
                       3.62439976E+00]),
                NASA([979.37, 5000.00],
                     [ 3.55670229E+00,  1.10625819E-02, -4.17009559E-06,
                       7.85564219E-10, -5.70042086E-14,  4.32042473E+03,
                       2.17665377E+00])))

species(name=u'C4H8-1(3)',
        atoms='H:8 C:4',
        thermo=(NASA([100.00, 1007.28],
                     [ 2.58772978E+00,  2.32777883E-02,  1.93412653E-05,
                      -3.55496729E-08,  1.36906178E-11, -1.91872929E+03,
                       1.45750592E+01]),
                NASA([1007.28, 5000.00],
                     [ 7.20516863E+00,  2.36361619E-02, -9.03150325E-06,
                       1.65392736E-09, -1.16019318E-13, -3.79733809E+03,
                      -1.24426086E+01])))

species(name=u'C4H8-2(4)',
        atoms='H:8 C:4',
        thermo=(NASA([100.00, 1157.78],
                     [ 2.51999305E+00,  2.76811707E-02,  9.44135366E-07,
                      -1.25013222E-08,  4.67160311E-12, -3.34374810E+03,
                       1.30195268E+01]),
                NASA([1157.78, 5000.00],
                     [ 6.04218222E+00,  2.60073554E-02, -1.04844041E-05,
                       1.90882450E-09, -1.30601743E-13, -4.86273126E+03,
                      -7.52672501E+00])))

species(name=u'C4H6(7)',
        atoms='H:6 C:4',
        thermo=(NASA([100.00, 946.05],
                     [ 2.80594317E+00,  1.02590609E-02,  6.17237648E-05,
                      -9.01611778E-08,  3.59103084E-11,  1.16584993E+04,
                       1.20623208E+01]),
                NASA([946.05, 5000.00],
                     [ 1.24695345E+01,  1.00551088E-02, -2.41190446E-06,
                       4.57038145E-10, -3.93127871E-14,  8.01071120E+03,
                      -4.36383840E+01])))

species(name=u'C6H8(9)',
        atoms='H:8 C:6',
        thermo=(NASA([100.00, 941.22],
                     [ 1.38427839E+00,  4.14411676E-02,  1.94286778E-05,
                      -6.16687823E-08,  2.86503237E-11,  1.76317462E+04,
                       1.93257559E+01]),
                NASA([941.22, 5000.00],
                     [ 1.69619725E+01,  1.57221629E-02, -4.10117912E-06,
                       6.95735258E-10, -5.26520576E-14,  1.29061653E+04,
                      -6.44097805E+01])))

species(name=u'H2(68)',
        atoms='H:2',
        thermo=(NASA([100.00, 1959.08],
                     [ 3.43536411E+00,  2.12710383E-04, -2.78625110E-07,
                       3.40267219E-10, -7.76032129E-14, -1.03135984E+03,
                      -3.90841731E+00]),
                NASA([1959.08, 5000.00],
                     [ 2.78816619E+00,  5.87640475E-04,  1.59010635E-07,
                      -5.52739465E-11,  4.34311304E-15, -5.96144481E+02,
                       1.12730527E-01])))

species(name=u'C8H10(113)',
        atoms='H:10 C:8',
        thermo=(NASA([100.00, 941.39],
                     [ 8.64066480E-02,  6.59512573E-02,  1.48806368E-06,
                      -6.06834808E-08,  3.13832585E-11,  2.39088947E+04,
                       2.66194394E+01]),
                NASA([941.39, 5000.00],
                     [ 2.28419165E+01,  1.96702446E-02, -5.08789164E-06,
                       8.53647924E-10, -6.42353888E-14,  1.73909208E+04,
                      -9.36517408E+01])))

species(name=u'S(181)',
        atoms='H:16 C:12',
        thermo=(NASA([100.00, 985.43],
                     [-1.88309559E+00,  1.07042782E-01, -2.70575175E-05,
                      -4.30521591E-08,  2.47769762E-11,  4.00783515E+04,
                       4.74622652E+01]),
                NASA([985.43, 5000.00],
                     [ 2.44924173E+01,  5.06802141E-02, -1.84364732E-05,
                       3.32429337E-09, -2.33628170E-13,  3.24184482E+04,
                      -9.18874447E+01])))

species(name=u'S(185)',
        atoms='H:16 C:12',
        thermo=(NASA([100.00, 992.46],
                     [-1.36729922E+00,  9.09281156E-02,  1.69886510E-05,
                      -8.53926708E-08,  3.84292138E-11,  2.11993211E+04,
                       3.87739443E+01]),
                NASA([992.46, 5000.00],
                     [ 2.42203013E+01,  5.14038229E-02, -1.94054924E-05,
                       3.62907015E-09, -2.61719468E-13,  1.29879994E+04,
                      -1.00258754E+02])))

species(name=u'S(244)',
        atoms='H:16 C:12',
        thermo=(NASA([100.00, 1082.71],
                     [-1.42164116E+00,  1.00365877E-01, -2.86684073E-05,
                      -2.45437346E-08,  1.37137557E-11,  2.67269125E+04,
                       3.45500457E+01]),
                NASA([1082.71, 5000.00],
                     [ 1.94955705E+01,  6.02183210E-02, -2.44875841E-05,
                       4.55574638E-09, -3.18940186E-13,  2.00211805E+04,
                      -7.80757961E+01])))

species(name=u'S(264)',
        atoms='H:16 C:12',
        thermo=(NASA([100.00, 967.86],
                     [-1.32199649E+00,  8.47366715E-02,  4.59829753E-05,
                      -1.23787643E-07,  5.42522776E-11,  2.23199242E+04,
                       3.57017535E+01]),
                NASA([967.86, 5000.00],
                     [ 2.71808180E+01,  4.57703342E-02, -1.58004061E-05,
                       2.92353835E-09, -2.14852771E-13,  1.31103467E+04,
                      -1.19950987E+02])))

species(name=u'S(932)',
        atoms='H:16 C:12',
        thermo=(NASA([100.00, 911.85],
                     [-1.33609459E+00,  4.63027982E-02,  2.34416435E-04,
                      -3.86157255E-07,  1.66327224E-10,  2.18115178E+04,
                       4.06060071E+01]),
                NASA([911.85, 5000.00],
                     [ 5.29601348E+01, -6.39074443E-03,  1.59676678E-05,
                      -3.35937702E-09,  2.12569373E-13,  4.19823199E+03,
                      -2.58615369E+02])))

species(name=u'S(937)',
        atoms='H:16 C:12',
        thermo=(NASA([100.00, 911.85],
                     [-1.33609459E+00,  4.63027982E-02,  2.34416435E-04,
                      -3.86157255E-07,  1.66327224E-10,  2.18115178E+04,
                       4.06060071E+01]),
                NASA([911.85, 5000.00],
                     [ 5.29601348E+01, -6.39074443E-03,  1.59676678E-05,
                      -3.35937702E-09,  2.12569373E-13,  4.19823199E+03,
                      -2.58615369E+02])))

species(name=u'S(1012)',
        atoms='H:16 C:12',
        thermo=(NASA([100.00, 1116.83],
                     [-2.83911346E+00,  1.32718825E-01, -1.00111247E-04,
                       3.34512524E-08, -2.86050088E-12,  1.91762838E+04,
                       2.64658390E+01]),
                NASA([1116.83, 5000.00],
                     [ 2.66401466E+01,  4.98852186E-02, -1.94113286E-05,
                       3.51700230E-09, -2.42250932E-13,  1.11729057E+04,
                      -1.25363349E+02])))

species(name=u'C7H8(1239)',
        atoms='H:8 C:7',
        thermo=(NASA([100.00, 966.81],
                     [ 1.90138525E+00,  2.67868538E-02,  6.30521699E-05,
                      -9.95222044E-08,  3.94204772E-11,  1.54781490E+04,
                       1.80531034E+01]),
                NASA([966.81, 5000.00],
                     [ 1.41488855E+01,  2.45164374E-02, -8.51968614E-06,
                       1.61189376E-09, -1.20789888E-13,  1.08478552E+04,
                      -5.23193518E+01])))

species(name=u'S(1530)',
        atoms='H:16 C:12',
        thermo=(NASA([100.00, 1004.10],
                     [-2.44554026E+00,  1.19460124E-01, -5.42113727E-05,
                      -1.98306731E-08,  1.72938054E-11,  1.92327185E+04,
                       2.74324743E+01]),
                NASA([1004.10, 5000.00],
                     [ 2.76168372E+01,  4.73830858E-02, -1.77675062E-05,
                       3.26559190E-09, -2.31661821E-13,  1.07919319E+04,
                      -1.29693355E+02])))

species(name=u'S(1652)',
        atoms='H:16 C:12',
        thermo=(NASA([100.00, 1021.52],
                     [-2.55916537E+00,  1.23979941E-01, -6.98889215E-05,
                      -1.71653017E-09,  1.04672448E-11,  2.00472815E+04,
                       2.60045106E+01]),
                NASA([1021.52, 5000.00],
                     [ 2.69714956E+01,  4.86652125E-02, -1.85023379E-05,
                       3.38660997E-09, -2.38029215E-13,  1.19103911E+04,
                      -1.27389363E+02])))

species(name=u'S(1778)',
        atoms='H:16 C:12',
        thermo=(NASA([100.00, 973.23],
                     [-2.63477225E+00,  1.20226415E-01, -4.37591601E-05,
                      -4.01206255E-08,  2.69317587E-11,  1.73414782E+04,
                       2.60306154E+01]),
                NASA([973.23, 5000.00],
                     [ 3.09674745E+01,  4.16455725E-02, -1.43897765E-05,
                       2.60647468E-09, -1.87348811E-13,  7.98189656E+03,
                      -1.49651929E+02])))

species(name=u'S(1997)',
        atoms='H:12 C:8',
        thermo=(NASA([100.00, 966.56],
                     [-1.28181569E-01,  7.35572718E-02, -1.44332890E-05,
                      -3.89699431E-08,  2.17300225E-11,  1.04422482E+04,
                       2.89601700E+01]),
                NASA([966.56, 5000.00],
                     [ 2.02785356E+01,  2.99584866E-02, -1.01704744E-05,
                       1.81720882E-09, -1.29537993E-13,  4.58909577E+03,
                      -7.86679011E+01])))

species(name=u'S(2160)',
        atoms='H:10 C:6',
        thermo=(NASA([100.00, 1020.64],
                     [ 9.97407792E-01,  5.59779371E-02, -2.05888747E-05,
                      -1.17171796E-08,  8.13407747E-12,  6.30749940E+03,
                       2.38942539E+01]),
                NASA([1020.64, 5000.00],
                     [ 1.33829093E+01,  2.83659778E-02, -1.07662265E-05,
                       1.95747034E-09, -1.36587777E-13,  2.68923113E+03,
                      -4.14516757E+01])))

species(name=u'X(1)',
        atoms='X:1',
        thermo=(NASA([100.00, 1554.81],
                     [ 7.10134880E-03, -4.25615041E-05,  8.98521156E-08,
                      -7.80182565E-11,  2.32462166E-14, -8.76099414E-01,
                      -3.11209498E-02]),
                NASA([1554.81, 5000.00],
                     [ 1.60301287E-01, -2.52237396E-04,  1.14182282E-07,
                      -1.21473809E-11,  3.85806589E-16, -7.08108147E+01,
                      -9.09535600E-01])))

species(name=u'HX(5)',
        atoms='H:1 X:1',
        thermo=(NASA([100.00, 952.91],
                     [-3.80957846E-01,  5.47219393E-03,  2.60946928E-06,
                      -9.65008412E-09,  4.63967474E-12, -3.62029075E+03,
                       1.01722845E+00]),
                NASA([952.91, 5000.00],
                     [ 2.80337105E+00, -5.41002993E-04,  4.99482316E-07,
                      -7.54902555E-11,  3.06721398E-15, -4.56102934E+03,
                      -1.59435356E+01])))

species(name=u'C2H3X(37)',
        atoms='H:3 C:2 X:1',
        thermo=(NASA([100.00, 928.60],
                     [ 3.83104022E+00, -8.76542826E-03,  6.98017027E-05,
                      -8.68052566E-08,  3.33256145E-11,  5.22669649E+03,
                      -1.81156365E+01]),
                NASA([928.60, 5000.00],
                     [ 8.78015372E+00,  1.92565992E-03,  8.25424482E-07,
                      -1.63654020E-10,  5.70926320E-15,  2.92745847E+03,
                      -4.90566656E+01])))

species(name=u'C4H5X(80)',
        atoms='H:5 C:4 X:1',
        thermo=(NASA([100.00, 936.52],
                     [ 2.68471814E+00,  1.36244384E-02,  5.32592262E-05,
                      -8.32913017E-08,  3.41499632E-11,  7.31993217E+03,
                      -1.06510519E+01]),
                NASA([936.52, 5000.00],
                     [ 1.29012238E+01,  8.96922349E-03, -1.71920361E-06,
                       2.89745198E-10, -2.58686934E-14,  3.69689442E+03,
                      -6.83963240E+01])))

species(name=u'C4H5X(81)',
        atoms='H:5 C:4 X:1',
        thermo=(NASA([100.00, 928.62],
                     [ 2.64239936E+00,  8.31017311E-03,  8.12180670E-05,
                      -1.21403473E-07,  4.98652517E-11,  1.25028378E+04,
                      -1.03935602E+01]),
                NASA([928.62, 5000.00],
                     [ 1.69488231E+01,  2.00857887E-03,  2.03445917E-06,
                      -4.02602194E-10,  1.85354193E-14,  7.46043792E+03,
                      -9.11978215E+01])))

species(name=u'C6H7X(132)',
        atoms='H:7 C:6 X:1',
        thermo=(NASA([100.00, 921.06],
                     [ 1.31098703E+00,  3.98938896E-02,  3.32176678E-05,
                      -8.35174769E-08,  3.86291185E-11,  1.23368333E+04,
                      -3.79681512E+00]),
                NASA([921.06, 5000.00],
                     [ 1.94242456E+01,  1.10873203E-02, -1.06260774E-06,
                       6.27632967E-11, -7.94405419E-15,  6.88537616E+03,
                      -1.01173483E+02])))

species(name=u'C6H7X(133)',
        atoms='H:7 C:6 X:1',
        thermo=(NASA([100.00, 937.50],
                     [ 1.68534398E+00,  3.10727560E-02,  5.20804043E-05,
                      -9.63159071E-08,  4.10725706E-11,  8.93701375E+03,
                      -3.14969376E+00]),
                NASA([937.50, 5000.00],
                     [ 1.71062698E+01,  1.56096252E-02, -3.71085468E-06,
                       6.25094970E-10, -4.95752994E-14,  3.83369200E+03,
                      -8.83482755E+01])))

species(name=u'C6H7X(134)',
        atoms='H:7 C:6 X:1',
        thermo=(NASA([100.00, 928.32],
                     [ 1.31533986E+00,  3.68784383E-02,  4.55982789E-05,
                      -9.88748537E-08,  4.43876422E-11,  1.81244836E+04,
                      -3.00642679E+00]),
                NASA([928.32, 5000.00],
                     [ 2.11711895E+01,  8.22305277E-03, -4.16748407E-08,
                      -7.09143678E-11, -2.30023750E-15,  1.19861957E+04,
                      -1.10528035E+02])))

species(name=u'C6H9X(192)',
        atoms='H:9 C:6 X:1',
        thermo=(NASA([100.00, 995.65],
                     [ 1.00156767E+00,  5.37833423E-02, -1.05083627E-05,
                      -2.52890803E-08,  1.36191022E-11,  1.40047083E+04,
                       4.73933245E+00]),
                NASA([995.65, 5000.00],
                     [ 1.48280231E+01,  2.56880474E-02, -9.53960436E-06,
                       1.75503504E-09, -1.24934189E-13,  9.89075933E+03,
                      -6.87382183E+01])))

species(name=u'SX(421)',
        atoms='H:15 C:12 X:1',
        thermo=(NASA([100.00, 998.99],
                     [-8.99681644E-01,  7.61931439E-02,  6.22666080E-05,
                      -1.28391527E-07,  5.19511337E-11,  1.64030357E+04,
                       1.70468401E+01]),
                NASA([998.99, 5000.00],
                     [ 2.29686336E+01,  5.66217120E-02, -2.24603797E-05,
                       4.30371748E-09, -3.14006954E-13,  7.84198246E+03,
                      -1.17060178E+02])))

species(name=u'SX(423)',
        atoms='H:15 C:12 X:1',
        thermo=(NASA([100.00, 984.85],
                     [-1.25406433E+00,  8.14711964E-02,  5.99711863E-05,
                      -1.35053269E-07,  5.65286943E-11,  1.38145825E+04,
                       1.50882404E+01]),
                NASA([984.85, 5000.00],
                     [ 2.64952131E+01,  5.12034378E-02, -1.94861180E-05,
                       3.72562272E-09, -2.74710317E-13,  4.35090936E+03,
                      -1.38659347E+02])))

species(name=u'SX(424)',
        atoms='H:15 C:12 X:1',
        thermo=(NASA([100.00, 997.03],
                     [-1.22037600E+00,  8.68473443E-02,  2.60868273E-05,
                      -9.32297667E-08,  4.06519239E-11,  2.76030986E+04,
                       1.98826545E+01]),
                NASA([997.03, 5000.00],
                     [ 2.39594220E+01,  5.16459655E-02, -1.99738667E-05,
                       3.77831029E-09, -2.73880072E-13,  1.93106962E+04,
                      -1.17926077E+02])))

species(name=u'SX(425)',
        atoms='H:15 C:12 X:1',
        thermo=(NASA([100.00, 965.88],
                     [-9.39659102E-01,  7.09157952E-02,  8.81192817E-05,
                      -1.68466748E-07,  7.00250655E-11,  2.09401927E+04,
                       1.75963708E+01]),
                NASA([965.88, 5000.00],
                     [ 2.80707627E+01,  4.41051552E-02, -1.51840188E-05,
                       2.87430427E-09, -2.16535705E-13,  1.09825472E+04,
                      -1.43891551E+02])))

species(name=u'SX(426)',
        atoms='H:15 C:12 X:1',
        thermo=(NASA([100.00, 976.32],
                     [-1.37895498E+00,  8.72745360E-02,  3.54588708E-05,
                      -1.10982201E-07,  4.90757397E-11,  2.05749466E+04,
                       1.56121273E+01]),
                NASA([976.32, 5000.00],
                     [ 2.68034823E+01,  4.65639241E-02, -1.68427426E-05,
                       3.15338239E-09, -2.31112121E-13,  1.15091546E+04,
                      -1.37922322E+02])))

species(name=u'SX(427)',
        atoms='H:15 C:12 X:1',
        thermo=(NASA([100.00, 976.32],
                     [-1.37895498E+00,  8.72745360E-02,  3.54588708E-05,
                      -1.10982201E-07,  4.90757397E-11,  2.05749466E+04,
                       1.56121273E+01]),
                NASA([976.32, 5000.00],
                     [ 2.68034823E+01,  4.65639241E-02, -1.68427426E-05,
                       3.15338239E-09, -2.31112121E-13,  1.15091546E+04,
                      -1.37922322E+02])))

species(name=u'SX(428)',
        atoms='H:15 C:12 X:1',
        thermo=(NASA([100.00, 976.32],
                     [-1.37895498E+00,  8.72745360E-02,  3.54588708E-05,
                      -1.10982201E-07,  4.90757397E-11,  2.05749466E+04,
                       1.56121273E+01]),
                NASA([976.32, 5000.00],
                     [ 2.68034823E+01,  4.65639241E-02, -1.68427426E-05,
                       3.15338239E-09, -2.31112121E-13,  1.15091546E+04,
                      -1.37922322E+02])))

species(name=u'SX(429)',
        atoms='H:15 C:12 X:1',
        thermo=(NASA([100.00, 976.32],
                     [-1.37895498E+00,  8.72745360E-02,  3.54588708E-05,
                      -1.10982201E-07,  4.90757397E-11,  2.05749466E+04,
                       1.56121273E+01]),
                NASA([976.32, 5000.00],
                     [ 2.68034823E+01,  4.65639241E-02, -1.68427426E-05,
                       3.15338239E-09, -2.31112121E-13,  1.15091546E+04,
                      -1.37922322E+02])))

species(name=u'SX(433)',
        atoms='H:15 C:12 X:1',
        thermo=(NASA([100.00, 970.35],
                     [-1.41780951E+00,  8.61769845E-02,  4.36522811E-05,
                      -1.22940533E-07,  5.41523646E-11,  2.16912549E+04,
                       1.56808778E+01]),
                NASA([970.35, 5000.00],
                     [ 2.81972010E+01,  4.42909715E-02, -1.55651487E-05,
                       2.91357405E-09, -2.15572214E-13,  1.21684381E+04,
                      -1.45757041E+02])))

species(name=u'SX(434)',
        atoms='H:15 C:12 X:1',
        thermo=(NASA([100.00, 970.35],
                     [-1.41780951E+00,  8.61769845E-02,  4.36522811E-05,
                      -1.22940533E-07,  5.41523646E-11,  2.16912549E+04,
                       1.56808778E+01]),
                NASA([970.35, 5000.00],
                     [ 2.81972010E+01,  4.42909715E-02, -1.55651487E-05,
                       2.91357405E-09, -2.15572214E-13,  1.21684381E+04,
                      -1.45757041E+02])))

species(name=u'SX(555)',
        atoms='H:15 C:12 X:1',
        thermo=(NASA([100.00, 955.41],
                     [-3.77377439E-01,  5.39172152E-02,  1.37553971E-04,
                      -2.19717076E-07,  8.84792194E-11,  1.89645032E+04,
                       1.69438794E+01]),
                NASA([955.41, 5000.00],
                     [ 2.73967040E+01,  4.40439111E-02, -1.40052797E-05,
                       2.60896776E-09, -1.99034221E-13,  8.80084560E+03,
                      -1.41198986E+02])))

species(name=u'SX(556)',
        atoms='H:15 C:12 X:1',
        thermo=(NASA([100.00, 972.20],
                     [-1.17668828E+00,  8.06807964E-02,  5.49635336E-05,
                      -1.31421934E-07,  5.63635583E-11,  2.87237676E+04,
                       1.68158987E+01]),
                NASA([972.20, 5000.00],
                     [ 2.68990987E+01,  4.60458530E-02, -1.63871878E-05,
                       3.07698288E-09, -2.27353188E-13,  1.94424662E+04,
                      -1.37499720E+02])))

species(name=u'SX(557)',
        atoms='H:15 C:12 X:1',
        thermo=(NASA([100.00, 965.89],
                     [-1.00971527E+00,  7.64988184E-02,  6.69829787E-05,
                      -1.43294732E-07,  6.06293006E-11,  1.97271976E+04,
                       1.35283835E+01]),
                NASA([965.89, 5000.00],
                     [ 2.60237773E+01,  4.73683394E-02, -1.64000565E-05,
                       3.03400310E-09, -2.23019650E-13,  1.06415394E+04,
                      -1.35953566E+02])))

species(name=u'SX(558)',
        atoms='H:15 C:12 X:1',
        thermo=(NASA([100.00, 955.56],
                     [-7.54342160E-01,  6.47582007E-02,  1.08167038E-04,
                      -1.91444631E-07,  7.90743839E-11,  1.97896945E+04,
                       1.49974598E+01]),
                NASA([955.56, 5000.00],
                     [ 2.82739830E+01,  4.27829775E-02, -1.35881730E-05,
                       2.51235113E-09, -1.90366337E-13,  9.69764667E+03,
                      -1.47506528E+02])))

species(name=u'SX(559)',
        atoms='H:15 C:12 X:1',
        thermo=(NASA([100.00, 958.35],
                     [-1.34095903E+00,  8.11576599E-02,  6.42570903E-05,
                      -1.49237031E-07,  6.48985619E-11,  2.16958698E+04,
                       1.25668143E+01]),
                NASA([958.35, 5000.00],
                     [ 2.98586424E+01,  4.07738785E-02, -1.31491592E-05,
                       2.42725245E-09, -1.82555963E-13,  1.15903198E+04,
                      -1.58150049E+02])))

species(name=u'SX(560)',
        atoms='H:15 C:12 X:1',
        thermo=(NASA([100.00, 958.35],
                     [-1.34095903E+00,  8.11576599E-02,  6.42570903E-05,
                      -1.49237031E-07,  6.48985619E-11,  2.16958698E+04,
                       1.25668143E+01]),
                NASA([958.35, 5000.00],
                     [ 2.98586424E+01,  4.07738785E-02, -1.31491592E-05,
                       2.42725245E-09, -1.82555963E-13,  1.15903198E+04,
                      -1.58150049E+02])))

species(name=u'SX(561)',
        atoms='H:15 C:12 X:1',
        thermo=(NASA([100.00, 958.35],
                     [-1.34095903E+00,  8.11576599E-02,  6.42570903E-05,
                      -1.49237031E-07,  6.48985619E-11,  2.16958698E+04,
                       1.25668143E+01]),
                NASA([958.35, 5000.00],
                     [ 2.98586424E+01,  4.07738785E-02, -1.31491592E-05,
                       2.42725245E-09, -1.82555963E-13,  1.15903198E+04,
                      -1.58150049E+02])))

species(name=u'SX(562)',
        atoms='H:15 C:12 X:1',
        thermo=(NASA([100.00, 952.79],
                     [-1.39064476E+00,  8.31564972E-02,  5.97636951E-05,
                      -1.45403149E-07,  6.40118121E-11,  1.70248046E+04,
                       1.18681287E+01]),
                NASA([952.79, 5000.00],
                     [ 2.95230890E+01,  4.13348590E-02, -1.28748816E-05,
                       2.31693850E-09, -1.72311508E-13,  7.14142830E+03,
                      -1.56729575E+02])))

species(name=u'SX(565)',
        atoms='H:15 C:12 X:1',
        thermo=(NASA([100.00, 952.79],
                     [-1.39064476E+00,  8.31564972E-02,  5.97636951E-05,
                      -1.45403149E-07,  6.40118121E-11,  1.70248046E+04,
                       1.18681287E+01]),
                NASA([952.79, 5000.00],
                     [ 2.95230890E+01,  4.13348590E-02, -1.28748816E-05,
                       2.31693850E-09, -1.72311508E-13,  7.14142830E+03,
                      -1.56729575E+02])))

species(name=u'SX(567)',
        atoms='H:15 C:12 X:1',
        thermo=(NASA([100.00, 954.61],
                     [-1.38221914E+00,  8.00845497E-02,  7.23872184E-05,
                      -1.61153121E-07,  6.99782736E-11,  2.28122833E+04,
                       1.26444172E+01]),
                NASA([954.61, 5000.00],
                     [ 3.12836071E+01,  3.84490667E-02, -1.18421790E-05,
                       2.18059183E-09, -1.66453252E-13,  1.22360679E+04,
                      -1.66161438E+02])))
