units(length='cm', time='s', quantity='mol', act_energy='kcal/mol')

ideal_gas(name='gas',
          elements="H D T C Ci O Oi N Ne Ar He Si S Cl X",
          species="""n-heptane   Ar          He          Ne
                     N2          C2H4(2)     C4H8-1(3)   C4H8-2(4)
                     C4H6(7)     H2(68)      C6H8(111)   C8H10(114)
                     S(181)      S(192)      S(203)      S(263)
                     S(308)      S(364)      C8H10(413)  S(500)
                     S(515)      S(519)      S(654)      S(734)
                     S(838)      S(931)      S(1009)     S(1046)
                     S(1219)     S(1450)     S(1488)     S(1707)
                     S(1745)     S(1797)     S(1993)     S(2195)
                     S(2196)     C5H8(2207)  S(2208)     S(2211)
                     S(2668)     S(2732)     S(3002)     S(3203)
                     S(3208)     S(3569)     S(3792)     S(4341)""",
          reactions='gas-*',
          initial_state=state(temperature=300.0, pressure=OneAtm))

ideal_interface(name='surface1',
                elements="H D T C Ci O Oi N Ne Ar He Si S Cl X",
                species="""X(1)        HX(5)       C2H3X(37)   C4H5X(80)
                          C4H5X(81)   C6H7X(132)  C6H7X(134)  SX(322)
                          SX(324)     SX(325)     SX(327)     SX(328)
                          SX(329)     SX(330)     SX(331)     C8H9X(414)
                          C8H9X(416)  SX(487)     SX(488)     SX(493)
                          SX(494)     SX(497)     SX(513)     SX(514)
                          C7H9X(517)  SX(533)     SX(546)     SX(757)
                          SX(758)     SX(760)     SX(761)     SX(762)
                          SX(765)     SX(1063)    SX(1065)    SX(1066)
                          SX(1067)    SX(1165)    SX(1167)    SX(1205)
                          SX(1214)    SX(1388)    SX(1389)    SX(1390)
                          SX(1480)    SX(1578)    SX(1664)    SX(1665)
                          SX(1667)    SX(1670)    SX(1671)    SX(1672)
                          SX(1673)    SX(1674)    SX(1790)    SX(1794)
                          SX(1795)    SX(1818)    SX(1819)    SX(1831)
                          SX(1916)    SX(1918)    SX(1919)    SX(1920)
                          SX(1921)    SX(1922)    SX(1924)    SX(1940)
                          SX(2015)    SX(2017)    SX(2019)    SX(2020)
                          SX(2021)    SX(2023)    SX(2049)    SX(2112)
                          SX(2114)    SX(2115)    SX(2117)    SX(2167)
                          SX(2190)    SX(2201)    SX(2239)    SX(2240)
                          SX(2241)    SX(2242)    SX(2439)    SX(2535)
                          SX(2554)    SX(2555)    SX(2664)    SX(2750)
                          SX(2751)    SX(2890)    SX(2997)    SX(2998)
                          SX(3136)    SX(3214)    SX(3216)    SX(3947)
                          SX(4302)    SX(4306)    SX(4321)    SX(4322)
                          SX(4335)    SX(4390)    SX(4393)    SX(4414)""",
                site_density=2.72e-09,
                phases="gas",
          reactions='surface1-*',
                initial_state=state(temperature=300.0, pressure=OneAtm))

#-------------------------------------------------------------------------------
# Element data
#-------------------------------------------------------------------------------

element(symbol=u'X', atomic_mass=195.083)
element(symbol=u'Ci', atomic_mass=13.003)
element(symbol=u'D', atomic_mass=2.014)
element(symbol=u'Oi', atomic_mass=18.0)
element(symbol=u'T', atomic_mass=3.016)
#-------------------------------------------------------------------------------
# Species data
#-------------------------------------------------------------------------------

species(name=u'n-heptane',
        atoms='H:16 C:7',
        thermo=(NASA([100.00, 1262.73],
                     [-2.91681405E-03,  7.69373649E-02, -3.48025563E-05,
                       1.86095180E-09,  2.01573617E-12, -2.57829342E+04,
                       3.00312148E+01]),
                NASA([1262.73, 5000.00],
                     [ 1.38377915E+01,  4.85945016E-02, -1.95474548E-05,
                       3.52837178E-09, -2.39064676E-13, -3.05141556E+04,
                      -4.48642836E+01])))

species(name=u'Ar',
        atoms='Ar:1',
        thermo=(NASA([200.00, 1000.00],
                     [ 2.50000000E+00,  0.00000000E+00,  0.00000000E+00,
                       0.00000000E+00,  0.00000000E+00, -7.45375000E+02,
                       4.37967000E+00]),
                NASA([1000.00, 6000.00],
                     [ 2.50000000E+00,  0.00000000E+00,  0.00000000E+00,
                       0.00000000E+00,  0.00000000E+00, -7.45375000E+02,
                       4.37967000E+00])))

species(name=u'He',
        atoms='He:1',
        thermo=(NASA([200.00, 1000.00],
                     [ 2.50000000E+00,  0.00000000E+00,  0.00000000E+00,
                       0.00000000E+00,  0.00000000E+00, -7.45375000E+02,
                       9.28724000E-01]),
                NASA([1000.00, 6000.00],
                     [ 2.50000000E+00,  0.00000000E+00,  0.00000000E+00,
                       0.00000000E+00,  0.00000000E+00, -7.45375000E+02,
                       9.28724000E-01])))

species(name=u'Ne',
        atoms='Ne:1',
        thermo=(NASA([200.00, 1000.00],
                     [ 2.50000000E+00,  0.00000000E+00,  0.00000000E+00,
                       0.00000000E+00,  0.00000000E+00, -7.45375000E+02,
                       3.35532000E+00]),
                NASA([1000.00, 6000.00],
                     [ 2.50000000E+00,  0.00000000E+00,  0.00000000E+00,
                       0.00000000E+00,  0.00000000E+00, -7.45375000E+02,
                       3.35532000E+00])))

species(name=u'N2',
        atoms='N:2',
        thermo=(NASA([200.00, 1000.00],
                     [ 3.53101000E+00, -1.23661000E-04, -5.02999000E-07,
                       2.43531000E-09, -1.40881000E-12, -1.04698000E+03,
                       2.96747000E+00]),
                NASA([1000.00, 6000.00],
                     [ 2.95258000E+00,  1.39690000E-03, -4.92632000E-07,
                       7.86010000E-11, -4.60755000E-15, -9.23949000E+02,
                       5.87189000E+00])))

species(name=u'C2H4(2)',
        atoms='H:4 C:2',
        thermo=(NASA([100.00, 979.36],
                     [ 3.97471606E+00, -4.75844285E-03,  4.16783770E-05,
                      -4.51392516E-08,  1.54224761E-11,  4.91540746E+03,
                       3.62430844E+00]),
                NASA([979.36, 5000.00],
                     [ 3.55660610E+00,  1.10627464E-02, -4.17019079E-06,
                       7.85586770E-10, -5.70060829E-14,  4.32046489E+03,
                       2.17719479E+00])))

species(name=u'C4H8-1(3)',
        atoms='H:8 C:4',
        thermo=(NASA([100.00, 1007.28],
                     [ 2.58772906E+00,  2.32777969E-02,  1.93412349E-05,
                      -3.55496333E-08,  1.36906009E-11, -1.91872926E+03,
                       1.45750618E+01]),
                NASA([1007.28, 5000.00],
                     [ 7.20517168E+00,  2.36361568E-02, -9.03150028E-06,
                       1.65392666E-09, -1.16019260E-13, -3.79733937E+03,
                      -1.24426257E+01])))

species(name=u'C4H8-2(4)',
        atoms='H:8 C:4',
        thermo=(NASA([100.00, 1157.79],
                     [ 2.51998327E+00,  2.76812799E-02,  9.43783469E-07,
                      -1.25009101E-08,  4.67144666E-12, -3.34374767E+03,
                       1.30195623E+01]),
                NASA([1157.79, 5000.00],
                     [ 6.04225708E+00,  2.60072350E-02, -1.04843374E-05,
                       1.90880922E-09, -1.30600505E-13, -4.86276511E+03,
                      -7.52715109E+00])))

species(name=u'C4H6(7)',
        atoms='H:6 C:4',
        thermo=(NASA([100.00, 946.05],
                     [ 2.80599310E+00,  1.02584471E-02,  6.17260255E-05,
                      -9.01642687E-08,  3.59116961E-11,  1.16584972E+04,
                       1.20621434E+01]),
                NASA([946.05, 5000.00],
                     [ 1.24693720E+01,  1.00553901E-02, -2.41206872E-06,
                       4.57077303E-10, -3.93160571E-14,  8.01077795E+03,
                      -4.36374720E+01])))

species(name=u'H2(68)',
        atoms='H:2',
        thermo=(NASA([100.00, 1959.08],
                     [ 3.43536412E+00,  2.12710353E-04, -2.78625043E-07,
                       3.40267167E-10, -7.76031998E-14, -1.03135984E+03,
                      -3.90841732E+00]),
                NASA([1959.08, 5000.00],
                     [ 2.78816583E+00,  5.87640942E-04,  1.59010417E-07,
                      -5.52739026E-11,  4.34310984E-15, -5.96144270E+02,
                       1.12732655E-01])))

species(name=u'C6H8(111)',
        atoms='H:8 C:6',
        thermo=(NASA([100.00, 972.94],
                     [ 1.82686070E+00,  3.47046353E-02,  2.41070171E-05,
                      -5.44847920E-08,  2.29388832E-11,  1.99100661E+04,
                       1.81393315E+01]),
                NASA([972.94, 5000.00],
                     [ 1.21686202E+01,  2.40472785E-02, -8.58151834E-06,
                       1.57034031E-09, -1.12795334E-13,  1.63897115E+04,
                      -3.92195169E+01])))

species(name=u'C8H10(114)',
        atoms='H:10 C:8',
        thermo=(NASA([100.00, 1006.91],
                     [ 9.59099136E-01,  5.26052795E-02,  1.05118295E-05,
                      -4.60808495E-08,  1.99632153E-11,  2.84660811E+04,
                       2.42924801E+01]),
                NASA([1006.91, 5000.00],
                     [ 1.34171277E+01,  3.60526403E-02, -1.38971709E-05,
                       2.56761905E-09, -1.81631637E-13,  2.42875578E+04,
                      -4.41873377E+01])))

species(name=u'S(181)',
        atoms='H:14 C:10',
        thermo=(NASA([100.00, 968.43],
                     [-1.78657670E-01,  6.27636610E-02,  6.13275679E-05,
                      -1.25568699E-07,  5.26247225E-11,  1.23467547E+04,
                       3.16624716E+01]),
                NASA([968.43, 5000.00],
                     [ 2.28001036E+01,  3.95488872E-02, -1.37666755E-05,
                       2.57450736E-09, -1.90686366E-13,  4.53405575E+03,
                      -9.58178615E+01])))

species(name=u'S(192)',
        atoms='H:16 C:12',
        thermo=(NASA([100.00, 980.77],
                     [-2.21845665E+00,  1.15202302E-01, -4.46058253E-05,
                      -2.89292454E-08,  2.08193354E-11,  3.97133228E+04,
                       4.48687920E+01]),
                NASA([980.77, 5000.00],
                     [ 2.59409200E+01,  4.89148103E-02, -1.74910345E-05,
                       3.12129948E-09, -2.18247198E-13,  3.18543069E+04,
                      -1.02343316E+02])))

species(name=u'S(203)',
        atoms='H:16 C:12',
        thermo=(NASA([100.00, 989.29],
                     [-1.49871027E+00,  8.97231513E-02,  3.13728211E-05,
                      -1.05849951E-07,  4.65472901E-11,  2.08342656E+04,
                       3.86324941E+01]),
                NASA([989.29, 5000.00],
                     [ 2.71231573E+01,  4.82447418E-02, -1.83146882E-05,
                       3.49879125E-09, -2.57494969E-13,  1.15378770E+04,
                      -1.17506583E+02])))

species(name=u'S(263)',
        atoms='H:15 C:12',
        thermo=(NASA([100.00, 994.96],
                     [-9.10525753E-01,  7.23065908E-02,  7.86529115E-05,
                      -1.50118451E-07,  6.04728055E-11,  3.34535297E+04,
                       3.72742060E+01]),
                NASA([994.96, 5000.00],
                     [ 2.59409054E+01,  5.12026508E-02, -2.04595453E-05,
                       4.01923029E-09, -2.99921063E-13,  2.38116792E+04,
                      -1.13734786E+02])))

species(name=u'S(308)',
        atoms='H:16 C:12',
        thermo=(NASA([100.00, 1011.71],
                     [-1.20303342E+00,  8.13255676E-02,  5.51392531E-05,
                      -1.24057147E-07,  5.05122313E-11,  1.92626563E+04,
                       3.67681708E+01]),
                NASA([1011.71, 5000.00],
                     [ 2.55049272E+01,  5.47778999E-02, -2.26996210E-05,
                       4.46368808E-09, -3.29899575E-13,  9.81303791E+03,
                      -1.12386527E+02])))

species(name=u'S(364)',
        atoms='H:12 C:10',
        thermo=(NASA([100.00, 1043.18],
                     [ 8.00010427E-02,  7.06155121E-02, -3.33970318E-06,
                      -3.75536308E-08,  1.70371997E-11,  3.70226034E+04,
                       3.04877535E+01]),
                NASA([1043.18, 5000.00],
                     [ 1.48527536E+01,  4.77532684E-02, -1.90425431E-05,
                       3.52560547E-09, -2.47266459E-13,  3.21023102E+04,
                      -5.02171312E+01])))

species(name=u'C8H10(413)',
        atoms='H:10 C:8',
        thermo=(NASA([100.00, 977.35],
                     [ 1.20172531E+00,  3.27274077E-02,  9.65442570E-05,
                      -1.46972960E-07,  5.73036376E-11,  3.66668179E+04,
                       1.86380248E+01]),
                NASA([977.35, 5000.00],
                     [ 1.91455428E+01,  3.13148912E-02, -1.18304959E-05,
                       2.35396563E-09, -1.80726910E-13,  2.97193129E+04,
                      -8.51181378E+01])))

species(name=u'S(500)',
        atoms='H:16 C:12',
        thermo=(NASA([100.00, 990.94],
                     [-1.53673879E+00,  9.50296733E-02,  8.13325447E-06,
                      -7.82185025E-08,  3.63989841E-11,  2.10168816E+04,
                       3.81765950E+01]),
                NASA([990.94, 5000.00],
                     [ 2.49483558E+01,  5.05143791E-02, -1.89287732E-05,
                       3.52660923E-09, -2.53947844E-13,  1.27044184E+04,
                      -1.04814787E+02])))

species(name=u'S(515)',
        atoms='H:15 C:12',
        thermo=(NASA([100.00, 970.90],
                     [-1.71520867E+00,  9.95432566E-02, -4.74357209E-06,
                      -7.04390643E-08,  3.56211412E-11,  3.34415592E+04,
                       3.83477263E+01]),
                NASA([970.90, 5000.00],
                     [ 2.67411184E+01,  4.44003661E-02, -1.54835680E-05,
                       2.80861775E-09, -2.01631064E-13,  2.49892981E+04,
                      -1.13168941E+02])))

species(name=u'S(519)',
        atoms='H:16 C:12',
        thermo=(NASA([100.00, 996.00],
                     [-1.69141437E+00,  1.00296023E-01, -9.12164045E-06,
                      -6.02514703E-08,  3.01240499E-11,  2.33643250E+04,
                       4.04318183E+01]),
                NASA([996.00, 5000.00],
                     [ 2.50042171E+01,  4.98983348E-02, -1.87841690E-05,
                       3.48686685E-09, -2.49705538E-13,  1.52285473E+04,
                      -1.02398792E+02])))

species(name=u'S(654)',
        atoms='H:15 C:12',
        thermo=(NASA([100.00, 992.27],
                     [-1.38340081E+00,  8.84602237E-02,  3.06336545E-05,
                      -1.02014839E-07,  4.45162985E-11,  3.06168321E+04,
                       3.52683180E+01]),
                NASA([992.27, 5000.00],
                     [ 2.55878851E+01,  5.06718152E-02, -1.94766159E-05,
                       3.69864365E-09, -2.69824719E-13,  2.17720278E+04,
                      -1.12240478E+02])))

species(name=u'S(734)',
        atoms='H:16 C:12',
        thermo=(NASA([100.00, 1013.91],
                     [-1.68456148E+00,  9.75829838E-02,  6.75024727E-06,
                      -7.54669033E-08,  3.43459639E-11,  1.64263299E+04,
                       3.47931908E+01]),
                NASA([1013.91, 5000.00],
                     [ 2.51858810E+01,  5.41893443E-02, -2.16834289E-05,
                       4.13524866E-09, -2.99152202E-13,  7.75908379E+03,
                      -1.11083545E+02])))

species(name=u'S(838)',
        atoms='H:12 C:10',
        thermo=(NASA([100.00, 968.65],
                     [ 6.55596893E-03,  5.50367595E-02,  8.40309751E-05,
                      -1.50786277E-07,  6.17167027E-11,  3.87297379E+04,
                       2.63275406E+01]),
                NASA([968.65, 5000.00],
                     [ 2.42145071E+01,  3.63241455E-02, -1.28171324E-05,
                       2.46810154E-09, -1.87634557E-13,  3.02280478E+04,
                      -1.09367124E+02])))

species(name=u'S(931)',
        atoms='H:12 C:10',
        thermo=(NASA([100.00, 934.90],
                     [ 1.14949863E+00,  2.56056208E-02,  1.48145681E-04,
                      -2.17005632E-07,  8.71671305E-11,  1.98025721E+04,
                       2.52596418E+01]),
                NASA([934.90, 5000.00],
                     [ 2.30268642E+01,  2.66924504E-02, -5.52368921E-06,
                       9.11070585E-10, -7.58555397E-14,  1.15738298E+04,
                      -1.00944658E+02])))

species(name=u'S(1009)',
        atoms='H:11 C:10',
        thermo=(NASA([100.00, 927.11],
                     [ 5.80169242E-01,  4.54991468E-02,  8.45438319E-05,
                      -1.52228728E-07,  6.51050039E-11,  3.12309550E+04,
                       2.57307422E+01]),
                NASA([927.11, 5000.00],
                     [ 2.31406667E+01,  2.44209791E-02, -4.73406672E-06,
                       6.89776122E-10, -5.41266922E-14,  2.37703881E+04,
                      -9.90782512E+01])))

species(name=u'S(1046)',
        atoms='H:12 C:10',
        thermo=(NASA([100.00, 936.06],
                     [ 2.95830266E-01,  5.44689708E-02,  6.09446235E-05,
                      -1.25610619E-07,  5.46763618E-11,  1.70397067E+04,
                       2.51926264E+01]),
                NASA([936.06, 5000.00],
                     [ 2.24308561E+01,  2.84460946E-02, -7.22714492E-06,
                       1.19289639E-09, -8.89025831E-14,  9.89187725E+03,
                      -9.61788204E+01])))

species(name=u'S(1219)',
        atoms='H:14 C:12',
        thermo=(NASA([100.00, 943.15],
                     [-7.78519436E-01,  7.42689681E-02,  5.10022322E-05,
                      -1.28380547E-07,  5.74363172E-11,  2.70193968E+04,
                       3.47064404E+01]),
                NASA([943.15, 5000.00],
                     [ 2.67426017E+01,  3.50206256E-02, -9.78845622E-06,
                       1.68166086E-09, -1.24583109E-13,  1.83824036E+04,
                      -1.14723123E+02])))

species(name=u'S(1450)',
        atoms='H:15 C:12',
        thermo=(NASA([100.00, 984.37],
                     [-5.37896420E-01,  6.91571916E-02,  6.78331849E-05,
                      -1.32481351E-07,  5.38778566E-11,  3.40474077E+04,
                       3.25829999E+01]),
                NASA([984.37, 5000.00],
                     [ 2.21119676E+01,  5.17760824E-02, -1.94438000E-05,
                       3.67256768E-09, -2.68128755E-13,  2.59711429E+04,
                      -9.47052603E+01])))

species(name=u'S(1488)',
        atoms='H:16 C:12',
        thermo=(NASA([100.00, 992.60],
                     [-2.02051020E+00,  1.08734835E-01, -2.89711942E-05,
                      -4.32763322E-08,  2.51062468E-11,  1.92512215E+04,
                       3.85793690E+01]),
                NASA([992.60, 5000.00],
                     [ 2.62576693E+01,  4.80482550E-02, -1.77622499E-05,
                       3.26163402E-09, -2.32284753E-13,  1.10132322E+04,
                      -1.10855289E+02])))

species(name=u'S(1707)',
        atoms='H:15 C:12',
        thermo=(NASA([100.00, 942.04],
                     [-1.58947506E+00,  9.96790343E-02, -9.80779895E-06,
                      -6.55996910E-08,  3.51324607E-11,  3.07361694E+04,
                       4.09976334E+01]),
                NASA([942.04, 5000.00],
                     [ 2.50044823E+01,  4.44935724E-02, -1.38685304E-05,
                       2.33330510E-09, -1.61367813E-13,  2.31638486E+04,
                      -9.93121534E+01])))

species(name=u'S(1745)',
        atoms='H:15 C:12',
        thermo=(NASA([100.00, 969.72],
                     [-1.17559632E+00,  7.67573889E-02,  7.48997522E-05,
                      -1.56119878E-07,  6.57729864E-11,  2.81287708E+04,
                       3.51645448E+01]),
                NASA([969.72, 5000.00],
                     [ 2.88356654E+01,  4.40916052E-02, -1.55324930E-05,
                       2.95988551E-09, -2.22757197E-13,  1.80236697E+04,
                      -1.30791674E+02])))

species(name=u'S(1797)',
        atoms='H:16 C:12',
        thermo=(NASA([100.00, 1013.91],
                     [-1.68456148E+00,  9.75829838E-02,  6.75024727E-06,
                      -7.54669033E-08,  3.43459639E-11,  1.64263299E+04,
                       3.47931908E+01]),
                NASA([1013.91, 5000.00],
                     [ 2.51858810E+01,  5.41893443E-02, -2.16834289E-05,
                       4.13524866E-09, -2.99152202E-13,  7.75908379E+03,
                      -1.11083545E+02])))

species(name=u'S(1993)',
        atoms='H:16 C:12',
        thermo=(NASA([100.00, 1049.01],
                     [-1.27811641E+00,  9.55421588E-02, -1.31865110E-05,
                      -4.20068246E-08,  2.02120066E-11,  2.05632801E+04,
                       3.72588317E+01]),
                NASA([1049.01, 5000.00],
                     [ 1.96609055E+01,  5.93539948E-02, -2.38627493E-05,
                       4.44850930E-09, -3.13394114E-13,  1.37682769E+04,
                      -7.62103408E+01])))

species(name=u'S(2195)',
        atoms='H:10 C:7',
        thermo=(NASA([100.00, 955.82],
                     [ 1.48815239E+00,  3.18444302E-02,  7.31362909E-05,
                      -1.19276583E-07,  4.82830646E-11,  8.79580288E+03,
                       2.11106153E+01]),
                NASA([955.82, 5000.00],
                     [ 1.72474758E+01,  2.46393030E-02, -7.74842595E-06,
                       1.44125128E-09, -1.09978719E-13,  3.09970252E+03,
                      -6.82445295E+01])))

species(name=u'S(2196)',
        atoms='H:12 C:9',
        thermo=(NASA([100.00, 979.99],
                     [ 1.39573100E-01,  6.40068822E-02,  2.02552262E-05,
                      -7.22435100E-08,  3.21451983E-11,  1.74655172E+04,
                       2.75901822E+01]),
                NASA([979.99, 5000.00],
                     [ 1.93044996E+01,  3.57565133E-02, -1.29966262E-05,
                       2.41345358E-09, -1.74892587E-13,  1.13095012E+04,
                      -7.67257785E+01])))

species(name=u'C5H8(2207)',
        atoms='H:8 C:5',
        thermo=(NASA([100.00, 1049.25],
                     [ 2.01062155E+00,  3.15407187E-02,  2.07789480E-05,
                      -4.44088985E-08,  1.72419112E-11,  7.01383967E+03,
                       1.65768346E+01]),
                NASA([1049.25, 5000.00],
                     [ 1.14809937E+01,  2.45641673E-02, -1.08867259E-05,
                       2.16707025E-09, -1.59145781E-13,  3.42314914E+03,
                      -3.72078866E+01])))

species(name=u'S(2208)',
        atoms='H:10 C:7',
        thermo=(NASA([100.00, 1013.93],
                     [ 1.13620462E+00,  5.07839825E-02,  1.86857674E-06,
                      -3.40292091E-08,  1.53985393E-11,  1.56009780E+04,
                       2.31184760E+01]),
                NASA([1013.93, 5000.00],
                     [ 1.25606010E+01,  3.32052103E-02, -1.27956037E-05,
                       2.35356470E-09, -1.65606655E-13,  1.18711633E+04,
                      -3.91241510E+01])))

species(name=u'S(2211)',
        atoms='H:12 C:9',
        thermo=(NASA([100.00, 1059.44],
                     [ 2.51173849E-01,  6.88557305E-02, -1.21546521E-05,
                      -2.53486165E-08,  1.24397390E-11,  2.41577643E+04,
                       2.93355522E+01]),
                NASA([1059.44, 5000.00],
                     [ 1.40740213E+01,  4.47797725E-02, -1.78707872E-05,
                       3.29539863E-09, -2.29928097E-13,  1.96511276E+04,
                      -4.55959333E+01])))

species(name=u'S(2668)',
        atoms='H:16 C:12',
        thermo=(NASA([100.00, 968.09],
                     [-1.96744923E+00,  1.02427933E-01,  2.99757724E-07,
                      -8.13048084E-08,  4.05078492E-11,  1.57018026E+04,
                       3.77549355E+01]),
                NASA([968.09, 5000.00],
                     [ 2.90764761E+01,  4.31575018E-02, -1.47720084E-05,
                       2.69469561E-09, -1.95816189E-13,  6.45785264E+03,
                      -1.27706527E+02])))

species(name=u'S(2732)',
        atoms='H:16 C:12',
        thermo=(NASA([100.00, 1049.01],
                     [-1.27807737E+00,  9.55417021E-02, -1.31849399E-05,
                      -4.20088090E-08,  2.02128242E-11,  2.07394050E+04,
                       3.71026937E+01]),
                NASA([1049.01, 5000.00],
                     [ 1.96607099E+01,  5.93543210E-02, -2.38629349E-05,
                       4.44855267E-09, -3.13397684E-13,  1.39444878E+04,
                      -7.63652334E+01])))

species(name=u'S(3002)',
        atoms='H:16 C:12',
        thermo=(NASA([100.00, 1008.15],
                     [-1.13013912E+00,  8.32461418E-02,  4.23395774E-05,
                      -1.07614948E-07,  4.45340280E-11,  1.48357924E+04,
                       3.37633603E+01]),
                NASA([1008.15, 5000.00],
                     [ 2.31133654E+01,  5.70618205E-02, -2.28606258E-05,
                       4.37819002E-09, -3.18052539E-13,  6.38998122E+03,
                      -1.01038439E+02])))

species(name=u'S(3203)',
        atoms='H:16 C:12',
        thermo=(NASA([100.00, 977.66],
                     [-1.13116632E+00,  7.64257364E-02,  7.73476224E-05,
                      -1.54971446E-07,  6.41081419E-11,  1.58704063E+04,
                       3.13782113E+01]),
                NASA([977.66, 5000.00],
                     [ 2.72045742E+01,  4.96262952E-02, -1.82897198E-05,
                       3.49685921E-09, -2.60175578E-13,  6.07008191E+03,
                      -1.26470732E+02])))

species(name=u'S(3208)',
        atoms='H:16 C:12',
        thermo=(NASA([100.00, 933.87],
                     [-1.78445418E-01,  5.02885530E-02,  1.42005662E-04,
                      -2.28043678E-07,  9.38997204E-11,  2.62674558E+04,
                       3.56634568E+01]),
                NASA([933.87, 5000.00],
                     [ 2.73942400E+01,  3.82824481E-02, -9.12066566E-06,
                       1.49334021E-09, -1.14528056E-13,  1.64912551E+04,
                      -1.20242029E+02])))

species(name=u'S(3569)',
        atoms='H:12 C:9',
        thermo=(NASA([100.00, 992.50],
                     [ 5.26807494E-01,  4.86231167E-02,  7.49333077E-05,
                      -1.27299019E-07,  5.00783383E-11,  3.23570514E+04,
                       2.35606431E+01]),
                NASA([992.50, 5000.00],
                     [ 1.94458924E+01,  4.06262577E-02, -1.61320968E-05,
                       3.15769699E-09, -2.35228860E-13,  2.52400651E+04,
                      -8.45053847E+01])))

species(name=u'S(3792)',
        atoms='H:14 C:12',
        thermo=(NASA([100.00, 1549.98],
                     [-2.02938838E+00,  1.17612668E-01, -8.83383290E-05,
                       3.33669812E-08, -5.06665473E-12,  1.56786170E+04,
                       3.82662546E+01]),
                NASA([1549.98, 5000.00],
                     [ 2.59022485E+01,  4.55301824E-02, -1.85802706E-05,
                       3.36316490E-09, -2.27273001E-13,  7.01991069E+03,
                      -1.08728599E+02])))

species(name=u'S(4341)',
        atoms='H:13 C:10',
        thermo=(NASA([100.00, 976.25],
                     [ 2.44850415E-02,  5.63859714E-02,  7.92794649E-05,
                      -1.41928102E-07,  5.74393116E-11,  2.04708984E+04,
                       2.81369127E+01]),
                NASA([976.25, 5000.00],
                     [ 2.23687210E+01,  4.13694852E-02, -1.52419740E-05,
                       2.92184710E-09, -2.18042141E-13,  1.24610288E+04,
                      -9.78033799E+01])))

species(name=u'X(1)',
        atoms='X:1',
        thermo=(NASA([100.00, 1554.80],
                     [ 7.10139498E-03, -4.25619522E-05,  8.98533016E-08,
                      -7.80193649E-11,  2.32465471E-14, -8.76101712E-01,
                      -3.11211229E-02]),
                NASA([1554.80, 5000.00],
                     [ 1.60299900E-01, -2.52235409E-04,  1.14181275E-07,
                      -1.21471653E-11,  3.85790025E-16, -7.08100885E+01,
                      -9.09527530E-01])))

species(name=u'HX(5)',
        atoms='H:1 X:1',
        thermo=(NASA([100.00, 952.91],
                     [-3.80965452E-01,  5.47228709E-03,  2.60912778E-06,
                      -9.64961980E-09,  4.63946753E-12, -2.16972714E+03,
                       1.01725550E+00]),
                NASA([952.91, 5000.00],
                     [ 2.80339655E+00, -5.41047017E-04,  4.99507978E-07,
                      -7.54963647E-11,  3.06772366E-15, -3.11047656E+03,
                      -1.59436787E+01])))

species(name=u'C2H3X(37)',
        atoms='H:3 C:2 X:1',
        thermo=(NASA([100.00, 928.62],
                     [ 3.83091018E+00, -8.76381562E-03,  6.97956896E-05,
                      -8.67969174E-08,  3.33218121E-11,  1.10289552E+04,
                      -1.81151753E+01]),
                NASA([928.62, 5000.00],
                     [ 8.78054562E+00,  1.92497720E-03,  8.25825014E-07,
                      -1.63749818E-10,  5.71728318E-15,  8.72955203E+03,
                      -4.90588618E+01])))

species(name=u'C4H5X(80)',
        atoms='H:5 C:4 X:1',
        thermo=(NASA([100.00, 936.52],
                     [ 2.68471723E+00,  1.36244496E-02,  5.32591849E-05,
                      -8.32912448E-08,  3.41499374E-11,  1.31221853E+04,
                      -1.06510487E+01]),
                NASA([936.52, 5000.00],