units(length='cm', time='s', quantity='mol', act_energy='kcal/mol')

ideal_gas(name='gas',
          elements="H D T C Ci O Oi N Ne Ar He Si S Cl X",
          species="""n-heptane   Ar          He          Ne
                     N2          C2H4(2)     C4H8-1(3)   C4H8-2(4)
                     C4H6(7)     C6H8(9)     H2(68)      C8H12(102)
                     C6H8(119)   C8H10(122)  S(173)      S(178)
                     S(181)      S(194)      S(198)      S(244)
                     S(264)      S(424)      S(426)      S(442)
                     S(451)      S(452)      S(453)      S(479)
                     S(490)      S(492)      C8H12(940)  S(1523)
                     S(1547)     S(1720)     S(1842)     S(2052)
                     S(2126)     S(2178)     S(2376)     S(2498)
                     S(2624)     C2H6(2802)  S(2836)     S(2838)
                     CH4(2845)   S(3446)     S(3447)     S(3549)
                     S(4264)     S(4336)     S(5153)     S(5470)""",
          reactions='gas-*',
          initial_state=state(temperature=300.0, pressure=OneAtm))

ideal_interface(name='surface1',
                elements="H D T C Ci O Oi N Ne Ar He Si S Cl X",
                species="""X(1)        HX(5)       C2H3X(37)   CH3X(39)
                          C2H5X(40)   C4H5X(80)   C4H5X(81)   C6H7X(142)
                          C6H7X(143)  C6H7X(144)  SX(313)     C6H7X(327)
                          SX(608)     SX(610)     SX(611)     SX(613)
                          SX(614)     SX(616)     SX(617)     SX(758)
                          SX(768)     SX(769)     SX(774)     SX(789)
                          SX(790)     SX(800)     SX(803)     SX(809)
                          SX(832)     SX(833)     SX(897)     SX(898)
                          SX(899)     SX(900)     SX(901)     SX(902)
                          SX(931)     SX(991)     SX(993)     SX(994)
                          SX(995)     SX(996)     SX(1185)    SX(1187)
                          SX(1188)    SX(1189)    SX(1190)    SX(1191)
                          SX(1192)    SX(1193)    SX(1194)    SX(1195)
                          SX(1196)    SX(1219)    SX(1225)    SX(1234)
                          SX(1237)    SX(1238)    SX(1250)    SX(1326)
                          SX(1444)    SX(1445)    SX(1446)    SX(1448)
                          SX(1449)    SX(1450)    SX(1451)    SX(1452)
                          SX(1453)    SX(1454)    SX(1455)    SX(1456)
                          SX(1457)    SX(1483)    SX(1493)    SX(1505)
                          SX(1516)    SX(1519)    SX(1542)    SX(1646)
                          SX(1647)    SX(1648)    SX(1649)    SX(1650)
                          SX(1651)    SX(1652)    SX(1653)    SX(1668)
                          SX(1684)    SX(1688)    SX(1692)    SX(1696)
                          SX(1697)    SX(1702)    SX(1703)    SX(1704)
                          SX(1714)    SX(1858)    SX(1859)    SX(1861)
                          SX(1868)    SX(1869)    SX(1990)    SX(1992)
                          SX(1993)    SX(1994)    SX(1995)    SX(1996)
                          SX(1997)    SX(1999)    SX(2000)    SX(2001)
                          SX(2002)    SX(2027)    SX(2031)    SX(2036)
                          SX(2046)    SX(2154)    SX(2155)    SX(2160)
                          SX(2273)    SX(2278)    SX(2279)    SX(2404)
                          SX(2406)    SX(2407)    SX(2411)    SX(2881)
                          SX(2883)    SX(2927)    SX(2928)    SX(2929)
                          SX(3037)    SX(3039)    SX(3106)    SX(3107)
                          SX(3108)    SX(3109)    SX(3157)    SX(3233)
                          SX(3235)    SX(3236)    SX(3237)    SX(3238)
                          SX(3239)    SX(3313)    SX(3346)    SX(3347)
                          SX(3489)    SX(3559)    SX(3563)    SX(3891)
                          SX(3895)    SX(3897)    SX(3900)    SX(3901)
                          SX(3928)    SX(3929)    SX(3932)    SX(4000)
                          SX(4001)    SX(4002)    SX(4003)    SX(4004)
                          SX(4176)    SX(4182)    SX(4325)    SX(4761)
                          SX(5082)    SX(5138)    SX(5141)    SX(5242)
                          SX(5251)    SX(5268)    SX(5269)    SX(5466)
                          SX(5474)    SX(5476)    SX(5588)    SX(5590)
                          SX(5628)    SX(5790)    SX(5792)    SX(5893)
                          SX(5898)""",
                site_density=2.72e-09,
                phases="gas",
          reactions='surface1-*',
                initial_state=state(temperature=300.0, pressure=OneAtm))

#-------------------------------------------------------------------------------
# Element data
#-------------------------------------------------------------------------------

element(symbol=u'X', atomic_mass=195.083)
element(symbol=u'Ci', atomic_mass=13.003)
element(symbol=u'D', atomic_mass=2.014)
element(symbol=u'Oi', atomic_mass=18.0)
element(symbol=u'T', atomic_mass=3.016)
#-------------------------------------------------------------------------------
# Species data
#-------------------------------------------------------------------------------

species(name=u'n-heptane',
        atoms='H:16 C:7',
        thermo=(NASA([100.00, 1262.73],
                     [-2.91681405E-03,  7.69373649E-02, -3.48025563E-05,
                       1.86095180E-09,  2.01573617E-12, -2.57829342E+04,
                       3.00312148E+01]),
                NASA([1262.73, 5000.00],
                     [ 1.38377915E+01,  4.85945016E-02, -1.95474548E-05,
                       3.52837178E-09, -2.39064676E-13, -3.05141556E+04,
                      -4.48642836E+01])))

species(name=u'Ar',
        atoms='Ar:1',
        thermo=(NASA([200.00, 1000.00],
                     [ 2.50000000E+00,  0.00000000E+00,  0.00000000E+00,
                       0.00000000E+00,  0.00000000E+00, -7.45375000E+02,
                       4.37967000E+00]),
                NASA([1000.00, 6000.00],
                     [ 2.50000000E+00,  0.00000000E+00,  0.00000000E+00,
                       0.00000000E+00,  0.00000000E+00, -7.45375000E+02,
                       4.37967000E+00])))

species(name=u'He',
        atoms='He:1',
        thermo=(NASA([200.00, 1000.00],
                     [ 2.50000000E+00,  0.00000000E+00,  0.00000000E+00,
                       0.00000000E+00,  0.00000000E+00, -7.45375000E+02,
                       9.28724000E-01]),
                NASA([1000.00, 6000.00],
                     [ 2.50000000E+00,  0.00000000E+00,  0.00000000E+00,
                       0.00000000E+00,  0.00000000E+00, -7.45375000E+02,
                       9.28724000E-01])))

species(name=u'Ne',
        atoms='Ne:1',
        thermo=(NASA([200.00, 1000.00],
                     [ 2.50000000E+00,  0.00000000E+00,  0.00000000E+00,
                       0.00000000E+00,  0.00000000E+00, -7.45375000E+02,
                       3.35532000E+00]),
                NASA([1000.00, 6000.00],
                     [ 2.50000000E+00,  0.00000000E+00,  0.00000000E+00,
                       0.00000000E+00,  0.00000000E+00, -7.45375000E+02,
                       3.35532000E+00])))

species(name=u'N2',
        atoms='N:2',
        thermo=(NASA([200.00, 1000.00],
                     [ 3.53101000E+00, -1.23661000E-04, -5.02999000E-07,
                       2.43531000E-09, -1.40881000E-12, -1.04698000E+03,
                       2.96747000E+00]),
                NASA([1000.00, 6000.00],
                     [ 2.95258000E+00,  1.39690000E-03, -4.92632000E-07,
                       7.86010000E-11, -4.60755000E-15, -9.23949000E+02,
                       5.87189000E+00])))

species(name=u'C2H4(2)',
        atoms='H:4 C:2',
        thermo=(NASA([100.00, 979.36],
                     [ 3.97471606E+00, -4.75844285E-03,  4.16783770E-05,
                      -4.51392516E-08,  1.54224761E-11,  4.91540746E+03,
                       3.62430844E+00]),
                NASA([979.36, 5000.00],
                     [ 3.55660610E+00,  1.10627464E-02, -4.17019079E-06,
                       7.85586770E-10, -5.70060829E-14,  4.32046489E+03,
                       2.17719479E+00])))

species(name=u'C4H8-1(3)',
        atoms='H:8 C:4',
        thermo=(NASA([100.00, 1007.28],
                     [ 2.58772906E+00,  2.32777969E-02,  1.93412349E-05,
                      -3.55496333E-08,  1.36906009E-11, -1.91872926E+03,
                       1.45750618E+01]),
                NASA([1007.28, 5000.00],
                     [ 7.20517168E+00,  2.36361568E-02, -9.03150028E-06,
                       1.65392666E-09, -1.16019260E-13, -3.79733937E+03,
                      -1.24426257E+01])))

species(name=u'C4H8-2(4)',
        atoms='H:8 C:4',
        thermo=(NASA([100.00, 1157.79],
                     [ 2.51998327E+00,  2.76812799E-02,  9.43783469E-07,
                      -1.25009101E-08,  4.67144666E-12, -3.34374767E+03,
                       1.30195623E+01]),
                NASA([1157.79, 5000.00],
                     [ 6.04225708E+00,  2.60072350E-02, -1.04843374E-05,
                       1.90880922E-09, -1.30600505E-13, -4.86276511E+03,
                      -7.52715109E+00])))

species(name=u'C4H6(7)',
        atoms='H:6 C:4',
        thermo=(NASA([100.00, 946.05],
                     [ 2.80599310E+00,  1.02584471E-02,  6.17260255E-05,
                      -9.01642687E-08,  3.59116961E-11,  1.16584972E+04,
                       1.20621434E+01]),
                NASA([946.05, 5000.00],
                     [ 1.24693720E+01,  1.00553901E-02, -2.41206872E-06,
                       4.57077303E-10, -3.93160571E-14,  8.01077795E+03,
                      -4.36374720E+01])))

species(name=u'C6H8(9)',
        atoms='H:8 C:6',
        thermo=(NASA([100.00, 941.22],
                     [ 1.38427980E+00,  4.14411503E-02,  1.94287417E-05,
                      -6.16688700E-08,  2.86503633E-11,  1.76317461E+04,
                       1.93257509E+01]),
                NASA([941.22, 5000.00],
                     [ 1.69619680E+01,  1.57221707E-02, -4.10118367E-06,
                       6.95736344E-10, -5.26521484E-14,  1.29061672E+04,
                      -6.44097553E+01])))

species(name=u'H2(68)',
        atoms='H:2',
        thermo=(NASA([100.00, 1959.08],
                     [ 3.43536412E+00,  2.12710353E-04, -2.78625043E-07,
                       3.40267167E-10, -7.76031998E-14, -1.03135984E+03,
                      -3.90841732E+00]),
                NASA([1959.08, 5000.00],
                     [ 2.78816583E+00,  5.87640942E-04,  1.59010417E-07,
                      -5.52739026E-11,  4.34310984E-15, -5.96144270E+02,
                       1.12732655E-01])))

species(name=u'C8H12(102)',
        atoms='H:12 C:8',
        thermo=(NASA([100.00, 973.99],
                     [ 1.29290720E+00,  3.40987620E-02,  8.83250757E-05,
                      -1.34013150E-07,  5.20549907E-11,  6.25186440E+03,
                       2.49510784E+01]),
                NASA([973.99, 5000.00],
                     [ 1.61828450E+01,  3.65065469E-02, -1.32663093E-05,
                       2.52136923E-09, -1.87069022E-13,  3.36603553E+02,
                      -6.19680596E+01])))

species(name=u'C6H8(119)',
        atoms='H:8 C:6',
        thermo=(NASA([100.00, 972.94],
                     [ 1.82686070E+00,  3.47046353E-02,  2.41070171E-05,
                      -5.44847920E-08,  2.29388832E-11,  1.99100661E+04,
                       1.81393315E+01]),
                NASA([972.94, 5000.00],
                     [ 1.21686202E+01,  2.40472785E-02, -8.58151834E-06,
                       1.57034031E-09, -1.12795334E-13,  1.63897115E+04,
                      -3.92195169E+01])))

species(name=u'C8H10(122)',
        atoms='H:10 C:8',
        thermo=(NASA([100.00, 966.00],
                     [ 5.26364552E-01,  5.92493286E-02,  6.02658334E-06,
                      -5.32875938E-08,  2.55662369E-11,  2.61873255E+04,
                       2.61353490E+01]),
                NASA([966.00, 5000.00],
                     [ 1.80461436E+01,  2.79985777E-02, -9.56971683E-06,
                       1.72854036E-09, -1.24398543E-13,  2.08757672E+04,
                      -6.77541641E+01])))

species(name=u'S(173)',
        atoms='H:14 C:10',
        thermo=(NASA([100.00, 1005.33],
                     [-8.70330413E-01,  8.89793335E-02, -2.38552724E-05,
                      -3.15628111E-08,  1.81664076E-11,  3.78335548E+04,
                       4.06086741E+01]),
                NASA([1005.33, 5000.00],
                     [ 2.02610588E+01,  4.45995858E-02, -1.68699763E-05,
                       3.08363695E-09, -2.16972192E-13,  3.15786714E+04,
                      -7.14276628E+01])))

species(name=u'S(178)',
        atoms='H:14 C:10',
        thermo=(NASA([100.00, 1000.82],
                     [-6.31768052E-02,  6.63327958E-02,  3.52866104E-05,
                      -8.69374671E-08,  3.59821837E-11,  1.49219107E+04,
                       3.14585536E+01]),
                NASA([1000.82, 5000.00],
                     [ 1.83633542E+01,  4.74202731E-02, -1.83998113E-05,
                       3.46693133E-09, -2.49801392E-13,  8.49241227E+03,
                      -7.11484830E+01])))

species(name=u'S(181)',
        atoms='H:14 C:10',
        thermo=(NASA([100.00, 970.10],
                     [-9.78988949E-03,  5.86706729E-02,  7.01434593E-05,
                      -1.32675939E-07,  5.46186119E-11,  1.25292176E+04,
                       3.22617600E+01]),
                NASA([970.10, 5000.00],
                     [ 2.20659649E+01,  4.04480551E-02, -1.42487489E-05,
                       2.67818961E-09, -1.98556600E-13,  4.82039373E+03,
                      -9.12271962E+01])))

species(name=u'S(194)',
        atoms='H:16 C:12',
        thermo=(NASA([100.00, 985.43],
                     [-1.88304682E+00,  1.07042194E-01, -2.70554103E-05,
                      -4.30549514E-08,  2.47781880E-11,  4.00783494E+04,
                       4.74620913E+01]),
                NASA([985.43, 5000.00],
                     [ 2.44922294E+01,  5.06805346E-02, -1.84366585E-05,
                       3.32433721E-09, -2.33631810E-13,  3.24185269E+04,
                      -9.18863874E+01])))

species(name=u'S(198)',
        atoms='H:16 C:12',
        thermo=(NASA([100.00, 992.45],
                     [-1.36726188E+00,  9.09276671E-02,  1.69902518E-05,
                      -8.53947805E-08,  3.84301239E-11,  2.11993195E+04,
                       3.87738109E+01]),
                NASA([992.45, 5000.00],
                     [ 2.42201531E+01,  5.14040751E-02, -1.94056379E-05,
                       3.62910452E-09, -2.61722320E-13,  1.29880616E+04,
                      -1.00257920E+02])))

species(name=u'S(244)',
        atoms='H:16 C:12',
        thermo=(NASA([100.00, 1082.71],
                     [-1.42165646E+00,  1.00366054E-01, -2.86690015E-05,
                      -2.45430021E-08,  1.37134617E-11,  2.67269131E+04,
                       3.45501008E+01]),
                NASA([1082.71, 5000.00],
                     [ 1.94956582E+01,  6.02181764E-02, -2.44875026E-05,
                       4.55572743E-09, -3.18938634E-13,  2.00211421E+04,
                      -7.80762928E+01])))

species(name=u'S(264)',
        atoms='H:16 C:12',
        thermo=(NASA([100.00, 967.86],
                     [-1.32209228E+00,  8.47378361E-02,  4.59787499E-05,
                      -1.23781967E-07,  5.42497769E-11,  2.23199283E+04,
                       3.57020946E+01]),
                NASA([967.86, 5000.00],
                     [ 2.71811605E+01,  4.57697461E-02, -1.58000646E-05,
                       2.92345730E-09, -2.14846023E-13,  1.31102045E+04,
                      -1.19952912E+02])))

species(name=u'S(424)',
        atoms='H:14 C:10',
        thermo=(NASA([100.00, 968.43],
                     [-1.78657670E-01,  6.27636610E-02,  6.13275679E-05,
                      -1.25568699E-07,  5.26247225E-11,  1.23467547E+04,
                       3.16624716E+01]),
                NASA([968.43, 5000.00],
                     [ 2.28001036E+01,  3.95488872E-02, -1.37666755E-05,
                       2.57450736E-09, -1.90686366E-13,  4.53405575E+03,
                      -9.58178615E+01])))

species(name=u'S(426)',
        atoms='H:14 C:10',
        thermo=(NASA([100.00, 968.43],
                     [-1.78657670E-01,  6.27636610E-02,  6.13275679E-05,
                      -1.25568699E-07,  5.26247225E-11,  1.23467547E+04,
                       3.16624716E+01]),
                NASA([968.43, 5000.00],
                     [ 2.28001036E+01,  3.95488872E-02, -1.37666755E-05,
                       2.57450736E-09, -1.90686366E-13,  4.53405575E+03,
                      -9.58178615E+01])))

species(name=u'S(442)',
        atoms='H:16 C:12',
        thermo=(NASA([100.00, 983.18],
                     [-2.05097756E+00,  1.11125066E-01, -3.58412237E-05,
                      -3.59772249E-08,  2.27919017E-11,  3.98958457E+04,
                       4.68593887E+01]),
                NASA([983.18, 5000.00],
                     [ 2.52169911E+01,  4.97969231E-02, -1.79633975E-05,
                       3.22270937E-09, -2.25930287E-13,  3.21362552E+04,
                      -9.64240230E+01])))

species(name=u'S(451)',
        atoms='H:16 C:12',
        thermo=(NASA([100.00, 965.51],
                     [-1.48010848E+00,  8.73195699E-02,  4.32084939E-05,
                      -1.24323023E-07,  5.52324518E-11,  1.86240551E+04,
                       3.89687652E+01]),
                NASA([965.51, 5000.00],
                     [ 2.86828957E+01,  4.34912924E-02, -1.47497714E-05,
                       2.73150662E-09, -2.02190259E-13,  9.01787604E+03,
                      -1.25075357E+02])))

species(name=u'S(452)',
        atoms='H:16 C:12',
        thermo=(NASA([100.00, 965.51],
                     [-1.48010848E+00,  8.73195699E-02,  4.32084939E-05,
                      -1.24323023E-07,  5.52324518E-11,  1.86240551E+04,
                       3.89687652E+01]),
                NASA([965.51, 5000.00],
                     [ 2.86828957E+01,  4.34912924E-02, -1.47497714E-05,
                       2.73150662E-09, -2.02190259E-13,  9.01787604E+03,
                      -1.25075357E+02])))

species(name=u'S(453)',
        atoms='H:16 C:12',
        thermo=(NASA([100.00, 1029.62],
                     [-1.39422662E+00,  9.33874007E-02,  5.18274062E-06,
                      -6.73313605E-08,  3.01045060E-11,  2.34099191E+04,
                       3.84701054E+01]),
                NASA([1029.62, 5000.00],
                     [ 2.29264927E+01,  5.57246220E-02, -2.27288480E-05,
                       4.34065058E-09, -3.12487849E-13,  1.53898378E+04,
                      -9.41993310E+01])))

species(name=u'S(479)',
        atoms='H:16 C:12',
        thermo=(NASA([100.00, 980.77],
                     [-2.21845665E+00,  1.15202302E-01, -4.46058253E-05,
                      -2.89292454E-08,  2.08193354E-11,  3.97133228E+04,
                       4.48687920E+01]),
                NASA([980.77, 5000.00],
                     [ 2.59409200E+01,  4.89148103E-02, -1.74910345E-05,
                       3.12129948E-09, -2.18247198E-13,  3.18543069E+04,
                      -1.02343316E+02])))

species(name=u'S(490)',
        atoms='H:16 C:12',
        thermo=(NASA([100.00, 989.29],
                     [-1.49871027E+00,  8.97231513E-02,  3.13728211E-05,
                      -1.05849951E-07,  4.65472901E-11,  2.08342656E+04,
                       3.86324941E+01]),
                NASA([989.29, 5000.00],
                     [ 2.71231573E+01,  4.82447418E-02, -1.83146882E-05,
                       3.49879125E-09, -2.57494969E-13,  1.15378770E+04,
                      -1.17506583E+02])))

species(name=u'S(492)',
        atoms='H:16 C:12',
        thermo=(NASA([100.00, 963.92],
                     [-1.64845539E+00,  9.14058212E-02,  3.44191801E-05,
                      -1.17255074E-07,  5.32576818E-11,  1.84415701E+04,
                       3.83676457E+01]),
                NASA([963.92, 5000.00],
                     [ 2.94170858E+01,  4.25921898E-02, -1.42677982E-05,
                       2.62785878E-09, -1.94323548E-13,  8.73146814E+03,
                      -1.29666404E+02])))

species(name=u'C8H12(940)',
        atoms='H:12 C:8',
        thermo=(NASA([100.00, 966.56],
                     [-1.28183216E-01,  7.35572918E-02, -1.44333618E-05,
                      -3.89698452E-08,  2.17299794E-11,  1.04422483E+04,
                       2.89601759E+01]),
                NASA([966.56, 5000.00],
                     [ 2.02785414E+01,  2.99584765E-02, -1.01704686E-05,
                       1.81720743E-09, -1.29537878E-13,  4.58909334E+03,
                      -7.86679341E+01])))

species(name=u'S(1523)',
        atoms='H:12 C:8',
        thermo=(NASA([100.00, 966.56],
                     [-1.28183216E-01,  7.35572918E-02, -1.44333618E-05,
                      -3.89698452E-08,  2.17299794E-11,  1.04422483E+04,
                       2.89601759E+01]),
                NASA([966.56, 5000.00],
                     [ 2.02785414E+01,  2.99584765E-02, -1.01704686E-05,
                       1.81720743E-09, -1.29537878E-13,  4.58909334E+03,
                      -7.86679341E+01])))

species(name=u'S(1547)',
        atoms='H:16 C:12',
        thermo=(NASA([100.00, 911.83],
                     [-1.33567750E+00,  4.62975801E-02,  2.34436127E-04,
                      -3.86184949E-07,  1.66340045E-10,  2.18115000E+04,
                       4.06045305E+01]),
                NASA([911.83, 5000.00],
                     [ 5.29589683E+01, -6.38869939E-03,  1.59664626E-05,
                      -3.35908785E-09,  2.12545105E-13,  4.19870290E+03,
                      -2.58608841E+02])))

species(name=u'S(1720)',
        atoms='H:16 C:12',
        thermo=(NASA([100.00, 990.56],
                     [-1.32892162E+00,  8.56175091E-02,  4.02422312E-05,
                      -1.13041663E-07,  4.85846312E-11,  2.10166900E+04,
                       3.92285904E+01]),
                NASA([990.56, 5000.00],
                     [ 2.63931502E+01,  4.91374623E-02, -1.87932792E-05,
                       3.60169126E-09, -2.65302821E-13,  1.18222932E+04,
                      -1.12939530E+02])))

species(name=u'S(1842)',
        atoms='H:16 C:12',
        thermo=(NASA([100.00, 990.58],
                     [-2.33660705E+00,  1.17589627E-01, -5.07043398E-05,
                      -2.32373623E-08,  1.87493632E-11,  4.39282128E+04,
                       4.73006447E+01]),
                NASA([990.58, 5000.00],
                     [ 2.68127310E+01,  4.77499782E-02, -1.74312383E-05,
                       3.15091712E-09, -2.21747475E-13,  3.58048177E+04,
                      -1.04906066E+02])))

species(name=u'S(2052)',
        atoms='H:16 C:12',
        thermo=(NASA([100.00, 911.83],
                     [-1.33567750E+00,  4.62975801E-02,  2.34436127E-04,
                      -3.86184949E-07,  1.66340045E-10,  2.18115000E+04,
                       4.06045305E+01]),
                NASA([911.83, 5000.00],
                     [ 5.29589683E+01, -6.38869939E-03,  1.59664626E-05,
                      -3.35908785E-09,  2.12545105E-13,  4.19870290E+03,
                      -2.58608841E+02])))

species(name=u'S(2126)',
        atoms='H:16 C:12',
        thermo=(NASA([100.00, 1116.84],
                     [-2.83914121E+00,  1.32719140E-01, -1.00112287E-04,
                       3.34525043E-08, -2.86099054E-12,  1.91762850E+04,
                       2.64659394E+01]),
                NASA([1116.84, 5000.00],
                     [ 2.66403282E+01,  4.98849225E-02, -1.94111630E-05,
                       3.51696406E-09, -2.42247815E-13,  1.11728250E+04,
                      -1.25364380E+02])))

species(name=u'S(2178)',
        atoms='H:15 C:12',
        thermo=(NASA([100.00, 907.48],
                     [-1.32657851E+00,  4.58797393E-02,  2.34059500E-04,
                      -3.89191605E-07,  1.68923945E-10,  3.02376241E+04,
                       3.95097770E+01]),
                NASA([907.48, 5000.00],
                     [ 5.39254412E+01, -1.07230889E-02,  1.86269484E-05,
                      -3.93134767E-09,  2.54929906E-13,  1.25122213E+04,
                      -2.64095851E+02])))

species(name=u'S(2376)',
        atoms='H:16 C:12',
        thermo=(NASA([100.00, 1004.10],
                     [-2.44553935E+00,  1.19460113E-01, -5.42113342E-05,
                      -1.98307234E-08,  1.72938269E-11,  1.92327184E+04,
                       2.74324710E+01]),
                NASA([1004.10, 5000.00],
                     [ 2.76168334E+01,  4.73830923E-02, -1.77675099E-05,
                       3.26559277E-09, -2.31661894E-13,  1.07919335E+04,
                      -1.29693334E+02])))

species(name=u'S(2498)',
        atoms='H:16 C:12',
        thermo=(NASA([100.00, 1021.52],
                     [-2.55916555E+00,  1.23979943E-01, -6.98889289E-05,
                      -1.71652057E-09,  1.04672407E-11,  2.00472815E+04,
                       2.60045113E+01]),
                NASA([1021.52, 5000.00],
                     [ 2.69714964E+01,  4.86652111E-02, -1.85023371E-05,
                       3.38660979E-09, -2.38029200E-13,  1.19103907E+04,
                      -1.27389367E+02])))

species(name=u'S(2624)',
        atoms='H:16 C:12',
        thermo=(NASA([100.00, 973.24],
                     [-2.63483510E+00,  1.20227177E-01, -4.37619151E-05,
                      -4.01169398E-08,  2.69301425E-11,  1.73414808E+04,
                       2.60308394E+01]),
                NASA([973.24, 5000.00],
                     [ 3.09677045E+01,  4.16451784E-02, -1.43895481E-05,
                       2.60642050E-09, -1.87344303E-13,  7.98180084E+03,
                      -1.49653222E+02])))

species(name=u'C2H6(2802)',
        atoms='H:6 C:2',
        thermo=(NASA([100.00, 1012.42],
                     [ 3.72239291E+00,  1.65083841E-03,  3.44175530E-05,
                      -3.76858229E-08,  1.24450657E-11, -1.15575901E+04,
                       4.68247999E+00]),
                NASA([1012.42, 5000.00],
                     [ 2.82848257E+00,  1.73040568E-02, -6.73334245E-06,
                       1.23742024E-09, -8.65676410E-14, -1.19978080E+04,
                       5.93811707E+00])))

species(name=u'S(2836)',
        atoms='H:16 C:10',
        thermo=(NASA([100.00, 996.21],
                     [-1.66222393E+00,  1.05913735E-01, -4.90518701E-05,
                      -1.54471216E-08,  1.45435417E-11,  3.25368421E+03,
                       3.72864712E+01]),
                NASA([996.21, 5000.00],
                     [ 2.37730101E+01,  4.38978636E-02, -1.60708071E-05,
                       2.89916239E-09, -2.03170384E-13, -3.80453052E+03,
                      -9.53173115E+01])))

species(name=u'S(2838)',
        atoms='H:16 C:10',
        thermo=(NASA([100.00, 996.21],
                     [-1.66222393E+00,  1.05913735E-01, -4.90518701E-05,
                      -1.54471216E-08,  1.45435417E-11,  3.25368421E+03,
                       3.79796184E+01]),
                NASA([996.21, 5000.00],
                     [ 2.37730101E+01,  4.38978636E-02, -1.60708071E-05,
                       2.89916239E-09, -2.03170384E-13, -3.80453052E+03,
                      -9.46241644E+01])))

species(name=u'CH4(2845)',
        atoms='H:4 C:1',
        thermo=(NASA([100.00, 1084.12],
                     [ 4.20541524E+00, -5.35557362E-03,  2.51123265E-05,
                      -2.13762843E-08,  5.97523937E-12, -1.01619433E+04,
                      -9.21279283E-01]),
                NASA([1084.12, 5000.00],
                     [ 9.08265721E-01,  1.14540858E-02, -4.57173828E-06,
                       8.29191671E-10, -5.66314895E-14, -9.71997444E+03,
                       1.39930944E+01])))

species(name=u'S(3446)',
        atoms='H:15 C:12',
        thermo=(NASA([100.00, 1030.69],
                     [-2.14830178E+00,  1.37586852E-01, -1.38181003E-04,
                       7.77197405E-08, -1.80404172E-11,  3.10404062E+04,
                       9.30789158E+00]),
                NASA([1030.69, 5000.00],
                     [ 1.78460919E+01,  5.99902448E-02, -2.52512212E-05,
                       4.67453237E-09, -3.22762217E-13,  2.69188262E+04,
                      -8.77577825E+01])))

species(name=u'S(3447)',
        atoms='H:15 C:12',
        thermo=(NASA([100.00, 983.36],
                     [-2.32524808E+00,  1.16459791E-01, -4.92423001E-05,
                      -2.69563107E-08,  2.07451063E-11,  2.12848906E+04,
                       8.96510965E+00]),
                NASA([983.36, 5000.00],
                     [ 2.81190401E+01,  4.34986676E-02, -1.55547935E-05,
                       2.81799598E-09, -2.00116108E-13,  1.28374618E+04,
                      -1.49907677E+02])))

species(name=u'S(3549)',
        atoms='H:12 C:8',
        thermo=(NASA([100.00, 1086.85],
                     [ 4.16666707E-01,  6.71551541E-02, -2.11380215E-05,
                      -1.29841076E-08,  7.80074417E-12,  1.12931799E+04,
                       2.75110729E+01]),
                NASA([1086.85, 5000.00],
                     [ 1.33702771E+01,  4.16858848E-02, -1.66324643E-05,
                       3.04995240E-09, -2.11355555E-13,  7.16599721E+03,
                      -4.20947236E+01])))

species(name=u'S(4264)',
        atoms='H:11 C:8',
        thermo=(NASA([100.00, 959.84],
                     [ 1.55549600E-01,  6.83420271E-02, -9.25100203E-06,
                      -4.10151280E-08,  2.20233793E-11,  2.30207324E+04,
                       2.83933616E+01]),
                NASA([959.84, 5000.00],
                     [ 1.87271414E+01,  2.98804919E-02, -9.98815788E-06,