units(length='cm', time='s', quantity='mol', act_energy='kcal/mol')

ideal_gas(name='gas',
          elements="H D T C Ci O Oi N Ne Ar He Si S Cl X",
          species="""n-heptane   Ar          He          Ne
                     N2          C2H4(2)     C4H8-1(3)   C4H8-2(4)
                     C4H6(7)     C6H8(9)     C3H6(32)    H2(68)
                     C8H12(102)  C6H8(111)   S(178)      S(181)
                     S(194)      S(198)      S(276)      S(279)
                     S(375)      S(473)      S(493)      S(501)
                     S(546)      S(611)      S(612)      S(614)
                     S(630)      S(638)      S(639)      S(664)
                     S(675)      S(1284)     S(1304)     S(1345)
                     S(1348)     S(1349)     C5H8(1366)  S(1367)
                     S(1390)     C5H8(1417)  C5H8(1836)  S(1839)
                     S(2527)     S(2812)     S(3051)     S(6051)
                     C7H8(6256)  S(6802)     S(7376)""",
          reactions='gas-*',
          initial_state=state(temperature=300.0, pressure=OneAtm))

ideal_interface(name='surface1',
                elements="H D T C Ci O Oi N Ne Ar He Si S Cl X",
                species="""X(1)        HX(5)       C2H3X(37)   allylX(38)
                          CH3X(39)    C4H7X(42)   C3H5X(45)   C4H5X(80)
                          C4H5X(81)   C6H9X(107)  C6H7X(142)  C6H7X(143)
                          C6H7X(144)  SX(186)     SX(206)     C6H7X(219)
                          C7H9X(269)  C5H7X(378)  SX(381)     SX(382)
                          SX(383)     SX(384)     SX(385)     SX(386)
                          SX(387)     SX(390)     SX(391)     SX(537)
                          SX(541)     SX(543)     SX(545)     SX(624)
                          SX(653)     SX(793)     SX(795)     SX(798)
                          SX(800)     SX(802)     SX(817)     SX(818)
                          SX(823)     SX(838)     SX(839)     SX(852)
                          SX(858)     C5H7X(861)  SX(882)     SX(948)
                          SX(949)     SX(950)     SX(952)     SX(989)
                          SX(1127)    SX(1141)    SX(1143)    SX(1186)
                          SX(1187)    SX(1189)    SX(1190)    SX(1191)
                          SX(1360)    SX(1384)    SX(1400)    SX(1453)
                          SX(1454)    SX(1455)    SX(1456)    SX(1669)
                          SX(1670)    SX(1671)    SX(1673)    SX(2113)
                          SX(2131)    SX(2171)    SX(2193)    SX(2195)
                          SX(2196)    SX(2333)    SX(2336)    SX(2337)
                          SX(2338)    SX(2339)    SX(2340)    SX(2341)
                          SX(2342)    SX(2343)    SX(2344)    SX(2361)
                          SX(2372)    SX(2376)    SX(2379)    SX(2380)
                          SX(2392)    SX(2401)    SX(2403)    SX(2470)
                          SX(2472)    SX(2473)    SX(2474)    SX(2475)
                          SX(2476)    SX(2517)    SX(2638)    SX(2639)
                          SX(2640)    SX(2641)    SX(2643)    SX(2831)
                          SX(2832)    SX(2833)    SX(2835)    SX(2836)
                          SX(2837)    SX(2839)    SX(2840)    SX(3003)
                          SX(3023)    SX(3033)    SX(3114)    SX(3115)
                          SX(3116)    SX(3431)    SX(3432)    SX(3435)
                          SX(3436)    SX(3438)    SX(3440)    SX(3441)
                          SX(3443)    SX(3483)    SX(3657)    SX(3658)
                          SX(3659)    SX(3660)    SX(3661)    SX(3662)
                          SX(3663)    SX(3664)    SX(3665)    SX(3666)
                          SX(3667)    SX(3668)    SX(3669)    SX(3693)
                          SX(3698)    SX(3699)    SX(3705)    SX(3715)
                          SX(3717)    SX(3731)    SX(3741)    SX(3746)
                          SX(3842)    SX(3868)    SX(3869)    SX(3941)
                          SX(3943)    SX(4020)    SX(4030)    SX(4031)
                          SX(4036)    SX(4043)    SX(4047)    SX(4048)
                          SX(4049)    SX(4076)    SX(4077)    SX(4146)
                          SX(4212)    SX(4363)    SX(4364)    SX(4736)
                          SX(4876)    SX(4882)    SX(4883)    SX(4941)
                          SX(5009)    SX(5010)    SX(5855)    SX(5857)
                          SX(5859)    SX(5861)    SX(5903)    SX(6064)
                          SX(6244)    SX(6246)    SX(6307)    SX(6308)
                          SX(6624)    SX(6755)    SX(6756)    SX(6759)
                          SX(6761)    SX(6779)    SX(6836)    SX(6862)
                          SX(6976)    SX(6977)    SX(6978)    SX(6979)
                          SX(6980)    SX(7085)    SX(7086)    SX(7088)
                          SX(7089)    SX(7090)    SX(7106)    SX(7212)
                          SX(7214)    SX(7215)    SX(7216)    SX(7217)
                          SX(7218)    SX(7219)    SX(7220)    SX(7243)
                          SX(7259)    SX(7448)    SX(7450)    SX(7451)
                          SX(7452)    SX(7453)    SX(7454)    SX(7455)
                          SX(7498)    SX(7506)    SX(7511)    SX(7900)
                          SX(7918)    SX(7921)    SX(7925)    SX(7928)""",
                site_density=2.72e-09,
                phases="gas",
          reactions='surface1-*',
                initial_state=state(temperature=300.0, pressure=OneAtm))

#-------------------------------------------------------------------------------
# Element data
#-------------------------------------------------------------------------------

element(symbol=u'X', atomic_mass=195.083)
element(symbol=u'Ci', atomic_mass=13.003)
element(symbol=u'D', atomic_mass=2.014)
element(symbol=u'Oi', atomic_mass=18.0)
element(symbol=u'T', atomic_mass=3.016)
#-------------------------------------------------------------------------------
# Species data
#-------------------------------------------------------------------------------

species(name=u'n-heptane',
        atoms='H:16 C:7',
        thermo=(NASA([100.00, 1262.73],
                     [-2.91681405E-03,  7.69373649E-02, -3.48025563E-05,
                       1.86095180E-09,  2.01573617E-12, -2.57829342E+04,
                       3.00312148E+01]),
                NASA([1262.73, 5000.00],
                     [ 1.38377915E+01,  4.85945016E-02, -1.95474548E-05,
                       3.52837178E-09, -2.39064676E-13, -3.05141556E+04,
                      -4.48642836E+01])))

species(name=u'Ar',
        atoms='Ar:1',
        thermo=(NASA([200.00, 1000.00],
                     [ 2.50000000E+00,  0.00000000E+00,  0.00000000E+00,
                       0.00000000E+00,  0.00000000E+00, -7.45375000E+02,
                       4.37967000E+00]),
                NASA([1000.00, 6000.00],
                     [ 2.50000000E+00,  0.00000000E+00,  0.00000000E+00,
                       0.00000000E+00,  0.00000000E+00, -7.45375000E+02,
                       4.37967000E+00])))

species(name=u'He',
        atoms='He:1',
        thermo=(NASA([200.00, 1000.00],
                     [ 2.50000000E+00,  0.00000000E+00,  0.00000000E+00,
                       0.00000000E+00,  0.00000000E+00, -7.45375000E+02,
                       9.28724000E-01]),
                NASA([1000.00, 6000.00],
                     [ 2.50000000E+00,  0.00000000E+00,  0.00000000E+00,
                       0.00000000E+00,  0.00000000E+00, -7.45375000E+02,
                       9.28724000E-01])))

species(name=u'Ne',
        atoms='Ne:1',
        thermo=(NASA([200.00, 1000.00],
                     [ 2.50000000E+00,  0.00000000E+00,  0.00000000E+00,
                       0.00000000E+00,  0.00000000E+00, -7.45375000E+02,
                       3.35532000E+00]),
                NASA([1000.00, 6000.00],
                     [ 2.50000000E+00,  0.00000000E+00,  0.00000000E+00,
                       0.00000000E+00,  0.00000000E+00, -7.45375000E+02,
                       3.35532000E+00])))

species(name=u'N2',
        atoms='N:2',
        thermo=(NASA([200.00, 1000.00],
                     [ 3.53101000E+00, -1.23661000E-04, -5.02999000E-07,
                       2.43531000E-09, -1.40881000E-12, -1.04698000E+03,
                       2.96747000E+00]),
                NASA([1000.00, 6000.00],
                     [ 2.95258000E+00,  1.39690000E-03, -4.92632000E-07,
                       7.86010000E-11, -4.60755000E-15, -9.23949000E+02,
                       5.87189000E+00])))

species(name=u'C2H4(2)',
        atoms='H:4 C:2',
        thermo=(NASA([100.00, 979.36],
                     [ 3.97471606E+00, -4.75844285E-03,  4.16783770E-05,
                      -4.51392516E-08,  1.54224761E-11,  4.91540746E+03,
                       3.62430844E+00]),
                NASA([979.36, 5000.00],
                     [ 3.55660610E+00,  1.10627464E-02, -4.17019079E-06,
                       7.85586770E-10, -5.70060829E-14,  4.32046489E+03,
                       2.17719479E+00])))

species(name=u'C4H8-1(3)',
        atoms='H:8 C:4',
        thermo=(NASA([100.00, 1007.28],
                     [ 2.58772906E+00,  2.32777969E-02,  1.93412349E-05,
                      -3.55496333E-08,  1.36906009E-11, -1.91872926E+03,
                       1.45750618E+01]),
                NASA([1007.28, 5000.00],
                     [ 7.20517168E+00,  2.36361568E-02, -9.03150028E-06,
                       1.65392666E-09, -1.16019260E-13, -3.79733937E+03,
                      -1.24426257E+01])))

species(name=u'C4H8-2(4)',
        atoms='H:8 C:4',
        thermo=(NASA([100.00, 1157.79],
                     [ 2.51998327E+00,  2.76812799E-02,  9.43783469E-07,
                      -1.25009101E-08,  4.67144666E-12, -3.34374767E+03,
                       1.30195623E+01]),
                NASA([1157.79, 5000.00],
                     [ 6.04225708E+00,  2.60072350E-02, -1.04843374E-05,
                       1.90880922E-09, -1.30600505E-13, -4.86276511E+03,
                      -7.52715109E+00])))

species(name=u'C4H6(7)',
        atoms='H:6 C:4',
        thermo=(NASA([100.00, 946.05],
                     [ 2.80599310E+00,  1.02584471E-02,  6.17260255E-05,
                      -9.01642687E-08,  3.59116961E-11,  1.16584972E+04,
                       1.20621434E+01]),
                NASA([946.05, 5000.00],
                     [ 1.24693720E+01,  1.00553901E-02, -2.41206872E-06,
                       4.57077303E-10, -3.93160571E-14,  8.01077795E+03,
                      -4.36374720E+01])))

species(name=u'C6H8(9)',
        atoms='H:8 C:6',
        thermo=(NASA([100.00, 941.22],
                     [ 1.38427980E+00,  4.14411503E-02,  1.94287417E-05,
                      -6.16688700E-08,  2.86503633E-11,  1.76317461E+04,
                       1.93257509E+01]),
                NASA([941.22, 5000.00],
                     [ 1.69619680E+01,  1.57221707E-02, -4.10118367E-06,
                       6.95736344E-10, -5.26521484E-14,  1.29061672E+04,
                      -6.44097553E+01])))

species(name=u'C3H6(32)',
        atoms='H:6 C:3',
        thermo=(NASA([100.00, 983.75],
                     [ 3.31912102E+00,  8.17958674E-03,  3.34736123E-05,
                      -4.36193684E-08,  1.58213364E-11,  7.49325328E+02,
                       9.54025058E+00]),
                NASA([983.75, 5000.00],
                     [ 5.36755173E+00,  1.70743019E-02, -6.35107626E-06,
                       1.16619529E-09, -8.27620279E-14, -4.87138326E+02,
                      -4.54467529E+00])))

species(name=u'H2(68)',
        atoms='H:2',
        thermo=(NASA([100.00, 1959.08],
                     [ 3.43536412E+00,  2.12710353E-04, -2.78625043E-07,
                       3.40267167E-10, -7.76031998E-14, -1.03135984E+03,
                      -3.90841732E+00]),
                NASA([1959.08, 5000.00],
                     [ 2.78816583E+00,  5.87640942E-04,  1.59010417E-07,
                      -5.52739026E-11,  4.34310984E-15, -5.96144270E+02,
                       1.12732655E-01])))

species(name=u'C8H12(102)',
        atoms='H:12 C:8',
        thermo=(NASA([100.00, 973.99],
                     [ 1.29290720E+00,  3.40987620E-02,  8.83250757E-05,
                      -1.34013150E-07,  5.20549907E-11,  6.25186440E+03,
                       2.49510784E+01]),
                NASA([973.99, 5000.00],
                     [ 1.61828450E+01,  3.65065469E-02, -1.32663093E-05,
                       2.52136923E-09, -1.87069022E-13,  3.36603553E+02,
                      -6.19680596E+01])))

species(name=u'C6H8(111)',
        atoms='H:8 C:6',
        thermo=(NASA([100.00, 972.94],
                     [ 1.82686070E+00,  3.47046353E-02,  2.41070171E-05,
                      -5.44847920E-08,  2.29388832E-11,  1.99100661E+04,
                       1.81393315E+01]),
                NASA([972.94, 5000.00],
                     [ 1.21686202E+01,  2.40472785E-02, -8.58151834E-06,
                       1.57034031E-09, -1.12795334E-13,  1.63897115E+04,
                      -3.92195169E+01])))

species(name=u'S(178)',
        atoms='H:14 C:10',
        thermo=(NASA([100.00, 1000.82],
                     [-6.31768052E-02,  6.63327958E-02,  3.52866104E-05,
                      -8.69374671E-08,  3.59821837E-11,  1.49219107E+04,
                       3.14585536E+01]),
                NASA([1000.82, 5000.00],
                     [ 1.83633542E+01,  4.74202731E-02, -1.83998113E-05,
                       3.46693133E-09, -2.49801392E-13,  8.49241227E+03,
                      -7.11484830E+01])))

species(name=u'S(181)',
        atoms='H:14 C:10',
        thermo=(NASA([100.00, 970.10],
                     [-9.78988949E-03,  5.86706729E-02,  7.01434593E-05,
                      -1.32675939E-07,  5.46186119E-11,  1.25292176E+04,
                       3.22617600E+01]),
                NASA([970.10, 5000.00],
                     [ 2.20659649E+01,  4.04480551E-02, -1.42487489E-05,
                       2.67818961E-09, -1.98556600E-13,  4.82039373E+03,
                      -9.12271962E+01])))

species(name=u'S(194)',
        atoms='H:16 C:12',
        thermo=(NASA([100.00, 985.43],
                     [-1.88304682E+00,  1.07042194E-01, -2.70554103E-05,
                      -4.30549514E-08,  2.47781880E-11,  4.00783494E+04,
                       4.74620913E+01]),
                NASA([985.43, 5000.00],
                     [ 2.44922294E+01,  5.06805346E-02, -1.84366585E-05,
                       3.32433721E-09, -2.33631810E-13,  3.24185269E+04,
                      -9.18863874E+01])))

species(name=u'S(198)',
        atoms='H:16 C:12',
        thermo=(NASA([100.00, 992.45],
                     [-1.36726188E+00,  9.09276671E-02,  1.69902518E-05,
                      -8.53947805E-08,  3.84301239E-11,  2.11993195E+04,
                       3.87738109E+01]),
                NASA([992.45, 5000.00],
                     [ 2.42201531E+01,  5.14040751E-02, -1.94056379E-05,
                       3.62910452E-09, -2.61722320E-13,  1.29880616E+04,
                      -1.00257920E+02])))

species(name=u'S(276)',
        atoms='H:14 C:10',
        thermo=(NASA([100.00, 988.70],
                     [-1.28102885E+00,  9.73401935E-02, -3.96908570E-05,
                      -2.28883979E-08,  1.70599250E-11,  2.01333918E+04,
                       3.80613736E+01]),
                NASA([988.70, 5000.00],
                     [ 2.35618068E+01,  3.86218834E-02, -1.40063814E-05,
                       2.54246809E-09, -1.80004061E-13,  1.31784885E+04,
                      -9.18377566E+01])))

species(name=u'S(279)',
        atoms='H:16 C:12',
        thermo=(NASA([100.00, 977.34],
                     [-2.74599726E+00,  1.25928887E-01, -6.64324947E-05,
                      -1.47539612E-08,  1.77495764E-11,  2.62279978E+04,
                       4.47490324E+01]),
                NASA([977.34, 5000.00],
                     [ 3.01371331E+01,  4.17345099E-02, -1.45468655E-05,
                       2.60501155E-09, -1.84397085E-13,  1.73938944E+04,
                      -1.25450857E+02])))

species(name=u'S(375)',
        atoms='H:16 C:12',
        thermo=(NASA([100.00, 988.05],
                     [-9.90763460E-01,  7.49443568E-02,  7.30755660E-05,
                      -1.45592285E-07,  5.94752748E-11,  3.52111413E+04,
                       3.82242358E+01]),
                NASA([988.05, 5000.00],
                     [ 2.57482315E+01,  5.13983508E-02, -1.97708047E-05,
                       3.81948909E-09, -2.83266908E-13,  2.57927039E+04,
                      -1.11377296E+02])))

species(name=u'S(473)',
        atoms='H:16 C:12',
        thermo=(NASA([100.00, 964.11],
                     [-5.65994219E-01,  6.59292976E-02,  8.55097849E-05,
                      -1.58866463E-07,  6.55825039E-11,  1.66012208E+04,
                       3.75177716E+01]),
                NASA([964.11, 5000.00],
                     [ 2.50574682E+01,  4.51583313E-02, -1.52574078E-05,
                       2.83726662E-09, -2.10891693E-13,  7.68501361E+03,
                      -1.05781207E+02])))

species(name=u'S(493)',
        atoms='H:16 C:12',
        thermo=(NASA([100.00, 965.51],
                     [-1.48010848E+00,  8.73195699E-02,  4.32084939E-05,
                      -1.24323023E-07,  5.52324518E-11,  1.86240551E+04,
                       3.89687652E+01]),
                NASA([965.51, 5000.00],
                     [ 2.86828957E+01,  4.34912924E-02, -1.47497714E-05,
                       2.73150662E-09, -2.02190259E-13,  9.01787604E+03,
                      -1.25075357E+02])))

species(name=u'S(501)',
        atoms='H:16 C:12',
        thermo=(NASA([100.00, 965.51],
                     [-3.34336762E-01,  5.24352779E-02,  1.38551243E-04,
                      -2.18308825E-07,  8.68866268E-11,  1.37311963E+04,
                       3.67996753E+01]),
                NASA([965.51, 5000.00],
                     [ 2.76669203E+01,  4.38350565E-02, -1.49513473E-05,
                       2.89804390E-09, -2.23537830E-13,  3.31785401E+03,
                      -1.23232763E+02])))

species(name=u'S(546)',
        atoms='H:16 C:12',
        thermo=(NASA([100.00, 977.34],
                     [-2.74599726E+00,  1.25928887E-01, -6.64324947E-05,
                      -1.47539612E-08,  1.77495764E-11,  2.62279978E+04,
                       4.47490324E+01]),
                NASA([977.34, 5000.00],
                     [ 3.01371331E+01,  4.17345099E-02, -1.45468655E-05,
                       2.60501155E-09, -1.84397085E-13,  1.73938944E+04,
                      -1.25450857E+02])))

species(name=u'S(611)',
        atoms='H:14 C:10',
        thermo=(NASA([100.00, 968.43],
                     [-1.78657670E-01,  6.27636610E-02,  6.13275679E-05,
                      -1.25568699E-07,  5.26247225E-11,  1.23467547E+04,
                       3.16624716E+01]),
                NASA([968.43, 5000.00],
                     [ 2.28001036E+01,  3.95488872E-02, -1.37666755E-05,
                       2.57450736E-09, -1.90686366E-13,  4.53405575E+03,
                      -9.58178615E+01])))

species(name=u'S(612)',
        atoms='H:14 C:10',
        thermo=(NASA([100.00, 968.43],
                     [-1.78657670E-01,  6.27636610E-02,  6.13275679E-05,
                      -1.25568699E-07,  5.26247225E-11,  1.23467547E+04,
                       3.16624716E+01]),
                NASA([968.43, 5000.00],
                     [ 2.28001036E+01,  3.95488872E-02, -1.37666755E-05,
                       2.57450736E-09, -1.90686366E-13,  4.53405575E+03,
                      -9.58178615E+01])))

species(name=u'S(614)',
        atoms='H:14 C:10',
        thermo=(NASA([100.00, 968.43],
                     [-1.78657670E-01,  6.27636610E-02,  6.13275679E-05,
                      -1.25568699E-07,  5.26247225E-11,  1.23467547E+04,
                       3.16624716E+01]),
                NASA([968.43, 5000.00],
                     [ 2.28001036E+01,  3.95488872E-02, -1.37666755E-05,
                       2.57450736E-09, -1.90686366E-13,  4.53405575E+03,
                      -9.58178615E+01])))

species(name=u'S(630)',
        atoms='H:16 C:12',
        thermo=(NASA([100.00, 983.18],
                     [-2.05097756E+00,  1.11125066E-01, -3.58412237E-05,
                      -3.59772249E-08,  2.27919017E-11,  3.98958457E+04,
                       4.68593887E+01]),
                NASA([983.18, 5000.00],
                     [ 2.52169911E+01,  4.97969231E-02, -1.79633975E-05,
                       3.22270937E-09, -2.25930287E-13,  3.21362552E+04,
                      -9.64240230E+01])))

species(name=u'S(638)',
        atoms='H:16 C:12',
        thermo=(NASA([100.00, 965.51],
                     [-1.48010848E+00,  8.73195699E-02,  4.32084939E-05,
                      -1.24323023E-07,  5.52324518E-11,  1.86240551E+04,
                       3.89687652E+01]),
                NASA([965.51, 5000.00],
                     [ 2.86828957E+01,  4.34912924E-02, -1.47497714E-05,
                       2.73150662E-09, -2.02190259E-13,  9.01787604E+03,
                      -1.25075357E+02])))

species(name=u'S(639)',
        atoms='H:16 C:12',
        thermo=(NASA([100.00, 1029.62],
                     [-1.39422662E+00,  9.33874007E-02,  5.18274062E-06,
                      -6.73313605E-08,  3.01045060E-11,  2.34099191E+04,
                       3.84701054E+01]),
                NASA([1029.62, 5000.00],
                     [ 2.29264927E+01,  5.57246220E-02, -2.27288480E-05,
                       4.34065058E-09, -3.12487849E-13,  1.53898378E+04,
                      -9.41993310E+01])))

species(name=u'S(664)',
        atoms='H:16 C:12',
        thermo=(NASA([100.00, 980.77],
                     [-2.21845665E+00,  1.15202302E-01, -4.46058253E-05,
                      -2.89292454E-08,  2.08193354E-11,  3.97133228E+04,
                       4.48687920E+01]),
                NASA([980.77, 5000.00],
                     [ 2.59409200E+01,  4.89148103E-02, -1.74910345E-05,
                       3.12129948E-09, -2.18247198E-13,  3.18543069E+04,
                      -1.02343316E+02])))

species(name=u'S(675)',
        atoms='H:16 C:12',
        thermo=(NASA([100.00, 989.29],
                     [-1.49871027E+00,  8.97231513E-02,  3.13728211E-05,
                      -1.05849951E-07,  4.65472901E-11,  2.08342656E+04,
                       3.86324941E+01]),
                NASA([989.29, 5000.00],
                     [ 2.71231573E+01,  4.82447418E-02, -1.83146882E-05,
                       3.49879125E-09, -2.57494969E-13,  1.15378770E+04,
                      -1.17506583E+02])))

species(name=u'S(1284)',
        atoms='H:16 C:12',
        thermo=(NASA([100.00, 1082.71],
                     [-1.42165646E+00,  1.00366054E-01, -2.86690015E-05,
                      -2.45430021E-08,  1.37134617E-11,  2.67269131E+04,
                       3.45501008E+01]),
                NASA([1082.71, 5000.00],
                     [ 1.94956582E+01,  6.02181764E-02, -2.44875026E-05,
                       4.55572743E-09, -3.18938634E-13,  2.00211421E+04,
                      -7.80762928E+01])))

species(name=u'S(1304)',
        atoms='H:16 C:12',
        thermo=(NASA([100.00, 967.86],
                     [-1.32209228E+00,  8.47378361E-02,  4.59787499E-05,
                      -1.23781967E-07,  5.42497769E-11,  2.23199283E+04,
                       3.57020946E+01]),
                NASA([967.86, 5000.00],
                     [ 2.71811605E+01,  4.57697461E-02, -1.58000646E-05,
                       2.92345730E-09, -2.14846023E-13,  1.31102045E+04,
                      -1.19952912E+02])))

species(name=u'S(1345)',
        atoms='H:12 C:8',
        thermo=(NASA([100.00, 1002.94],
                     [ 1.69489980E-02,  7.28189377E-02, -2.16585698E-05,
                      -2.40807783E-08,  1.44597041E-11,  1.38562447E+04,
                       3.07679077E+01]),
                NASA([1002.94, 5000.00],
                     [ 1.77276883E+01,  3.45993801E-02, -1.29781828E-05,
                       2.37500136E-09, -1.67643536E-13,  8.67334638E+03,
                      -6.28559377E+01])))

species(name=u'S(1348)',
        atoms='H:14 C:10',
        thermo=(NASA([100.00, 986.06],
                     [-1.44909215E+00,  1.01424899E-01, -4.84844562E-05,
                      -1.57983685E-08,  1.50673204E-11,  1.99508936E+04,
                       3.67659825E+01]),
                NASA([986.06, 5000.00],
                     [ 2.42859453E+01,  3.77392366E-02, -1.35336379E-05,
                       2.44095589E-09, -1.72311717E-13,  1.28965094E+04,
                      -9.70649724E+01])))

species(name=u'S(1349)',
        atoms='H:14 C:10',
        thermo=(NASA([100.00, 988.70],
                     [-1.28102885E+00,  9.73401935E-02, -3.96908570E-05,
                      -2.28883979E-08,  1.70599250E-11,  2.01333918E+04,
                       3.80613736E+01]),
                NASA([988.70, 5000.00],
                     [ 2.35618068E+01,  3.86218834E-02, -1.40063814E-05,
                       2.54246809E-09, -1.80004061E-13,  1.31784885E+04,
                      -9.18377566E+01])))

species(name=u'C5H8(1366)',
        atoms='H:8 C:5',
        thermo=(NASA([100.00, 1004.86],
                     [ 1.98273955E+00,  3.49998332E-02,  6.98515281E-06,
                      -3.05031334E-08,  1.32246652E-11,  6.96521034E+03,
                       1.60818191E+01]),
                NASA([1004.86, 5000.00],
                     [ 1.01246420E+01,  2.42323877E-02, -9.24886971E-06,
                       1.70115950E-09, -1.20059732E-13,  4.23624320E+03,
                      -2.86745770E+01])))

species(name=u'S(1367)',
        atoms='H:10 C:7',
        thermo=(NASA([100.00, 977.01],
                     [ 7.59861149E-01,  5.67805793E-02, -3.27402391E-06,
                      -3.81869349E-08,  1.92141927E-11,  1.68422297E+04,
                       2.58833892E+01]),
                NASA([977.01, 5000.00],
                     [ 1.63899118E+01,  2.68219043E-02, -9.52885818E-06,
                       1.73427451E-09, -1.23996710E-13,  1.21637943E+04,
                      -5.74716086E+01])))

species(name=u'S(1390)',
        atoms='H:10 C:7',
        thermo=(NASA([100.00, 960.58],
                     [ 5.40181259E-01,  6.14551349E-02, -1.12030877E-05,
                      -3.44223146E-08,  1.91302393E-11,  1.31395193E+04,
                       2.36489181E+01]),
                NASA([960.58, 5000.00],
                     [ 1.78943603E+01,  2.43013009E-02, -8.01425042E-06,
                       1.41741320E-09, -1.01048701E-13,  8.18561381E+03,
                      -6.78088657E+01])))

species(name=u'C5H8(1417)',
        atoms='H:8 C:5',
        thermo=(NASA([100.00, 1945.28],
                     [ 1.54057150E+00,  4.70674891E-02, -3.00891500E-05,
                       9.08792775E-09, -1.08388618E-12,  1.04128608E+04,
                       1.86285770E+01]),
                NASA([1945.28, 5000.00],
                     [ 1.57976301E+01,  1.77513582E-02, -7.48362302E-06,
                       1.34081097E-09, -8.82587923E-14,  4.86605187E+03,
                      -5.96402586E+01])))

species(name=u'C5H8(1836)',
        atoms='H:8 C:5',
        thermo=(NASA([100.00, 1049.25],
                     [ 2.01062155E+00,  3.15407187E-02,  2.07789480E-05,
                      -4.44088985E-08,  1.72419112E-11,  7.01383967E+03,
                       1.65768346E+01]),
                NASA([1049.25, 5000.00],
                     [ 1.14809937E+01,  2.45641673E-02, -1.08867259E-05,
                       2.16707025E-09, -1.59145781E-13,  3.42314914E+03,
                      -3.72078866E+01])))

species(name=u'S(1839)',
        atoms='H:10 C:7',
        thermo=(NASA([100.00, 960.58],
                     [ 5.40181259E-01,  6.14551349E-02, -1.12030877E-05,
                      -3.44223146E-08,  1.91302393E-11,  1.31395193E+04,
                       2.36489181E+01]),
                NASA([960.58, 5000.00],
                     [ 1.78943603E+01,  2.43013009E-02, -8.01425042E-06,
                       1.41741320E-09, -1.01048701E-13,  8.18561381E+03,
                      -6.78088657E+01])))

species(name=u'S(2527)',
        atoms='H:16 C:12',
        thermo=(NASA([100.00, 965.51],
                     [-1.48010848E+00,  8.73195699E-02,  4.32084939E-05,
                      -1.24323023E-07,  5.52324518E-11,  1.86240551E+04,
                       3.89687652E+01]),
                NASA([965.51, 5000.00],
                     [ 2.86828957E+01,  4.34912924E-02, -1.47497714E-05,
                       2.73150662E-09, -2.02190259E-13,  9.01787604E+03,
                      -1.25075357E+02])))

species(name=u'S(2812)',
        atoms='H:16 C:12',
        thermo=(NASA([100.00, 1032.79],
                     [-2.12813202E+00,  1.15641295E-01, -5.83207356E-05,
                      -6.74201695E-09,  1.07760889E-11,  2.73676739E+04,
                       4.37300656E+01]),
                NASA([1032.79, 5000.00],
                     [ 2.40911763E+01,  5.16316513E-02, -1.98737459E-05,
                       3.63257134E-09, -2.53925294E-13,  1.99498701E+04,
                      -9.33010532E+01])))

species(name=u'S(3051)',
        atoms='H:14 C:10',
        thermo=(NASA([100.00, 988.70],
                     [-1.28102885E+00,  9.73401935E-02, -3.96908570E-05,
                      -2.28883979E-08,  1.70599250E-11,  2.01333918E+04,
                       3.80613736E+01]),
                NASA([988.70, 5000.00],
                     [ 2.35618068E+01,  3.86218834E-02, -1.40063814E-05,
                       2.54246809E-09, -1.80004061E-13,  1.31784885E+04,
                      -9.18377566E+01])))

species(name=u'S(6051)',
        atoms='H:14 C:10',
        thermo=(NASA([100.00, 1064.04],
                     [-6.60643484E-01,  8.69906580E-02, -3.11998499E-05,