units(length='cm', time='s', quantity='mol', act_energy='kcal/mol')

ideal_gas(name='gas',
          elements="H D T C Ci O Oi N Ne Ar He Si S Cl X",
          species="""n-heptane   Ar          He          Ne
                     N2          C2H4(2)     C4H8-1(3)   C4H8-2(4)
                     C4H6(7)     C6H8(9)     C3H6(32)    H2(68)
                     C8H12(102)  S(181)      S(194)      S(198)
                     S(309)      S(642)      C7H8(846)   C5H8(1009)
                     S(1177)     S(1225)     S(1229)     S(1493)
                     S(1502)     S(1516)     S(1613)     S(1702)
                     C5H8(1713)  S(1716)     S(1744)     S(1756)
                     CH4(2297)   C4H8(2335)  C2H6(2340)  S(2819)
                     S(5437)     S(5780)     S(5833)     S(5882)
                     S(6254)     C5H8(6740)  S(6808)     S(7212)
                     S(8748)     S(9936)""",
          reactions='gas-*',
          initial_state=state(temperature=300.0, pressure=OneAtm))

ideal_interface(name='surface1',
                elements="H D T C Ci O Oi N Ne Ar He Si S Cl X",
                species="""X(1)        HX(5)       C2H3X(37)   allylX(38)
                          CH3X(39)    C2H5X(40)   C4H7X(42)   C4H7X(43)
                          C3H5X(45)   C4H7X(46)   C4H7X(47)   C4H5X(80)
                          C4H5X(81)   C6H9X(97)   C6H9X(98)   C6H9X(115)
                          SX(120)     SX(121)     C6H7X(142)  C6H7X(143)
                          C6H7X(144)  SX(219)     SX(223)     SX(224)
                          C6H7X(233)  SX(239)     SX(240)     SX(468)
                          SX(469)     SX(470)     SX(471)     SX(472)
                          SX(473)     SX(474)     SX(475)     SX(476)
                          SX(477)     SX(481)     SX(482)     SX(603)
                          SX(604)     SX(605)     SX(606)     SX(607)
                          SX(608)     SX(609)     SX(615)     C7H9X(635)
                          SX(718)     C6H9X(719)  SX(720)     SX(721)
                          SX(722)     SX(723)     SX(724)     SX(725)
                          SX(726)     SX(727)     SX(776)     SX(794)
                          SX(798)     SX(799)     SX(811)     SX(812)
                          SX(833)     SX(835)     C5H7X(838)  C7H7X(898)
                          C7H7X(899)  C7H7X(903)  C7H9X(956)  C7H9X(958)
                          SX(1003)    SX(1005)    SX(1011)    SX(1029)
                          SX(1030)    SX(1083)    SX(1119)    SX(1145)
                          SX(1152)    SX(1153)    SX(1158)    SX(1159)
                          SX(1160)    SX(1174)    SX(1214)    SX(1218)
                          SX(1282)    SX(1283)    SX(1284)    SX(1285)
                          SX(1286)    SX(1414)    SX(1416)    SX(1417)
                          SX(1461)    SX(1545)    SX(1603)    SX(1662)
                          SX(1663)    SX(1668)    SX(1672)    SX(1673)
                          SX(1950)    SX(2038)    SX(2039)    SX(2357)
                          SX(2358)    SX(2741)    SX(2743)    SX(2745)
                          SX(2748)    SX(2750)    SX(2812)    SX(2899)
                          SX(2900)    SX(2901)    SX(2902)    SX(2903)
                          SX(3430)    SX(3527)    SX(3531)    SX(3554)
                          SX(3586)    SX(3619)    SX(3621)    SX(3625)
                          SX(3712)    SX(3713)    SX(4490)    SX(4494)
                          SX(4495)    SX(4496)    SX(4701)    SX(4702)
                          SX(4704)    SX(4705)    SX(4706)    SX(4707)
                          SX(4709)    SX(4710)    SX(4711)    SX(4712)
                          SX(4743)    SX(4759)    SX(4761)    SX(4766)
                          SX(4772)    SX(4773)    SX(4775)    SX(4783)
                          SX(4852)    SX(4853)    SX(4854)    SX(4855)
                          SX(4931)    SX(4980)    SX(4981)    SX(4982)
                          SX(4983)    SX(4984)    SX(5135)    SX(5207)
                          SX(5208)    SX(5248)    SX(5249)    SX(5271)
                          SX(5344)    SX(5496)    SX(5497)    SX(5498)
                          SX(5499)    SX(5500)    SX(5501)    SX(5502)
                          SX(5537)    SX(5686)    SX(5769)    SX(5771)
                          SX(5776)    SX(5827)    SX(5893)    SX(5894)
                          SX(5895)    SX(5896)    SX(5897)    SX(5898)
                          SX(6027)    SX(6083)    SX(6251)    SX(6288)
                          SX(6345)    SX(6346)    SX(6347)    SX(6348)
                          SX(6518)    SX(6878)    SX(6880)    SX(6881)
                          SX(7199)    SX(7201)    SX(7206)    SX(7423)
                          SX(7424)    SX(7429)    SX(7430)    SX(7431)
                          SX(7544)    SX(7545)    SX(7546)    SX(7547)
                          SX(7548)    SX(7549)    SX(7550)    SX(7551)
                          SX(7649)    SX(7732)    SX(7993)    SX(7994)
                          SX(8393)    SX(8395)    SX(8489)    SX(8490)
                          SX(8491)    SX(8492)    SX(8493)    SX(8494)
                          SX(8495)    SX(8496)    SX(8497)    SX(8612)
                          SX(8613)    SX(8614)    SX(8615)    SX(8617)
                          SX(8618)    SX(8619)    SX(8620)    SX(8621)
                          SX(8622)    SX(8634)    SX(8679)    SX(8680)
                          SX(8746)    SX(8747)    SX(8765)    SX(8773)
                          SX(8827)    SX(8828)    SX(8829)    SX(8830)
                          SX(8895)    SX(9017)    SX(9018)    SX(9019)
                          SX(9194)    SX(9951)    SX(9955)    SX(9956)
                          SX(10236)   SX(10241)   SX(10242)   SX(10243)
                          SX(10297)   SX(10344)   SX(10345)   SX(10347)""",
                site_density=2.72e-09,
                phases="gas",
          reactions='surface1-*',
                initial_state=state(temperature=300.0, pressure=OneAtm))

#-------------------------------------------------------------------------------
# Element data
#-------------------------------------------------------------------------------

element(symbol=u'X', atomic_mass=195.083)
element(symbol=u'Ci', atomic_mass=13.003)
element(symbol=u'D', atomic_mass=2.014)
element(symbol=u'Oi', atomic_mass=18.0)
element(symbol=u'T', atomic_mass=3.016)
#-------------------------------------------------------------------------------
# Species data
#-------------------------------------------------------------------------------

species(name=u'n-heptane',
        atoms='H:16 C:7',
        thermo=(NASA([100.00, 1262.73],
                     [-2.91681405E-03,  7.69373649E-02, -3.48025563E-05,
                       1.86095180E-09,  2.01573617E-12, -2.57829342E+04,
                       3.00312148E+01]),
                NASA([1262.73, 5000.00],
                     [ 1.38377915E+01,  4.85945016E-02, -1.95474548E-05,
                       3.52837178E-09, -2.39064676E-13, -3.05141556E+04,
                      -4.48642836E+01])))

species(name=u'Ar',
        atoms='Ar:1',
        thermo=(NASA([200.00, 1000.00],
                     [ 2.50000000E+00,  0.00000000E+00,  0.00000000E+00,
                       0.00000000E+00,  0.00000000E+00, -7.45375000E+02,
                       4.37967000E+00]),
                NASA([1000.00, 6000.00],
                     [ 2.50000000E+00,  0.00000000E+00,  0.00000000E+00,
                       0.00000000E+00,  0.00000000E+00, -7.45375000E+02,
                       4.37967000E+00])))

species(name=u'He',
        atoms='He:1',
        thermo=(NASA([200.00, 1000.00],
                     [ 2.50000000E+00,  0.00000000E+00,  0.00000000E+00,
                       0.00000000E+00,  0.00000000E+00, -7.45375000E+02,
                       9.28724000E-01]),
                NASA([1000.00, 6000.00],
                     [ 2.50000000E+00,  0.00000000E+00,  0.00000000E+00,
                       0.00000000E+00,  0.00000000E+00, -7.45375000E+02,
                       9.28724000E-01])))

species(name=u'Ne',
        atoms='Ne:1',
        thermo=(NASA([200.00, 1000.00],
                     [ 2.50000000E+00,  0.00000000E+00,  0.00000000E+00,
                       0.00000000E+00,  0.00000000E+00, -7.45375000E+02,
                       3.35532000E+00]),
                NASA([1000.00, 6000.00],
                     [ 2.50000000E+00,  0.00000000E+00,  0.00000000E+00,
                       0.00000000E+00,  0.00000000E+00, -7.45375000E+02,
                       3.35532000E+00])))

species(name=u'N2',
        atoms='N:2',
        thermo=(NASA([200.00, 1000.00],
                     [ 3.53101000E+00, -1.23661000E-04, -5.02999000E-07,
                       2.43531000E-09, -1.40881000E-12, -1.04698000E+03,
                       2.96747000E+00]),
                NASA([1000.00, 6000.00],
                     [ 2.95258000E+00,  1.39690000E-03, -4.92632000E-07,
                       7.86010000E-11, -4.60755000E-15, -9.23949000E+02,
                       5.87189000E+00])))

species(name=u'C2H4(2)',
        atoms='H:4 C:2',
        thermo=(NASA([100.00, 979.36],
                     [ 3.97471606E+00, -4.75844285E-03,  4.16783770E-05,
                      -4.51392516E-08,  1.54224761E-11,  4.91540746E+03,
                       3.62430844E+00]),
                NASA([979.36, 5000.00],
                     [ 3.55660610E+00,  1.10627464E-02, -4.17019079E-06,
                       7.85586770E-10, -5.70060829E-14,  4.32046489E+03,
                       2.17719479E+00])))

species(name=u'C4H8-1(3)',
        atoms='H:8 C:4',
        thermo=(NASA([100.00, 1007.28],
                     [ 2.58772906E+00,  2.32777969E-02,  1.93412349E-05,
                      -3.55496333E-08,  1.36906009E-11, -1.91872926E+03,
                       1.45750618E+01]),
                NASA([1007.28, 5000.00],
                     [ 7.20517168E+00,  2.36361568E-02, -9.03150028E-06,
                       1.65392666E-09, -1.16019260E-13, -3.79733937E+03,
                      -1.24426257E+01])))

species(name=u'C4H8-2(4)',
        atoms='H:8 C:4',
        thermo=(NASA([100.00, 1157.79],
                     [ 2.51998327E+00,  2.76812799E-02,  9.43783469E-07,
                      -1.25009101E-08,  4.67144666E-12, -3.34374767E+03,
                       1.30195623E+01]),
                NASA([1157.79, 5000.00],
                     [ 6.04225708E+00,  2.60072350E-02, -1.04843374E-05,
                       1.90880922E-09, -1.30600505E-13, -4.86276511E+03,
                      -7.52715109E+00])))

species(name=u'C4H6(7)',
        atoms='H:6 C:4',
        thermo=(NASA([100.00, 946.05],
                     [ 2.80599310E+00,  1.02584471E-02,  6.17260255E-05,
                      -9.01642687E-08,  3.59116961E-11,  1.16584972E+04,
                       1.20621434E+01]),
                NASA([946.05, 5000.00],
                     [ 1.24693720E+01,  1.00553901E-02, -2.41206872E-06,
                       4.57077303E-10, -3.93160571E-14,  8.01077795E+03,
                      -4.36374720E+01])))

species(name=u'C6H8(9)',
        atoms='H:8 C:6',
        thermo=(NASA([100.00, 941.22],
                     [ 1.38427980E+00,  4.14411503E-02,  1.94287417E-05,
                      -6.16688700E-08,  2.86503633E-11,  1.76317461E+04,
                       1.93257509E+01]),
                NASA([941.22, 5000.00],
                     [ 1.69619680E+01,  1.57221707E-02, -4.10118367E-06,
                       6.95736344E-10, -5.26521484E-14,  1.29061672E+04,
                      -6.44097553E+01])))

species(name=u'C3H6(32)',
        atoms='H:6 C:3',
        thermo=(NASA([100.00, 983.75],
                     [ 3.31912102E+00,  8.17958674E-03,  3.34736123E-05,
                      -4.36193684E-08,  1.58213364E-11,  7.49325328E+02,
                       9.54025058E+00]),
                NASA([983.75, 5000.00],
                     [ 5.36755173E+00,  1.70743019E-02, -6.35107626E-06,
                       1.16619529E-09, -8.27620279E-14, -4.87138326E+02,
                      -4.54467529E+00])))

species(name=u'H2(68)',
        atoms='H:2',
        thermo=(NASA([100.00, 1959.08],
                     [ 3.43536412E+00,  2.12710353E-04, -2.78625043E-07,
                       3.40267167E-10, -7.76031998E-14, -1.03135984E+03,
                      -3.90841732E+00]),
                NASA([1959.08, 5000.00],
                     [ 2.78816583E+00,  5.87640942E-04,  1.59010417E-07,
                      -5.52739026E-11,  4.34310984E-15, -5.96144270E+02,
                       1.12732655E-01])))

species(name=u'C8H12(102)',
        atoms='H:12 C:8',
        thermo=(NASA([100.00, 973.99],
                     [ 1.29290720E+00,  3.40987620E-02,  8.83250757E-05,
                      -1.34013150E-07,  5.20549907E-11,  6.25186440E+03,
                       2.49510784E+01]),
                NASA([973.99, 5000.00],
                     [ 1.61828450E+01,  3.65065469E-02, -1.32663093E-05,
                       2.52136923E-09, -1.87069022E-13,  3.36603553E+02,
                      -6.19680596E+01])))

species(name=u'S(181)',
        atoms='H:14 C:10',
        thermo=(NASA([100.00, 970.10],
                     [-9.78988949E-03,  5.86706729E-02,  7.01434593E-05,
                      -1.32675939E-07,  5.46186119E-11,  1.25292176E+04,
                       3.22617600E+01]),
                NASA([970.10, 5000.00],
                     [ 2.20659649E+01,  4.04480551E-02, -1.42487489E-05,
                       2.67818961E-09, -1.98556600E-13,  4.82039373E+03,
                      -9.12271962E+01])))

species(name=u'S(194)',
        atoms='H:16 C:12',
        thermo=(NASA([100.00, 985.43],
                     [-1.88304682E+00,  1.07042194E-01, -2.70554103E-05,
                      -4.30549514E-08,  2.47781880E-11,  4.00783494E+04,
                       4.74620913E+01]),
                NASA([985.43, 5000.00],
                     [ 2.44922294E+01,  5.06805346E-02, -1.84366585E-05,
                       3.32433721E-09, -2.33631810E-13,  3.24185269E+04,
                      -9.18863874E+01])))

species(name=u'S(198)',
        atoms='H:16 C:12',
        thermo=(NASA([100.00, 992.45],
                     [-1.36726188E+00,  9.09276671E-02,  1.69902518E-05,
                      -8.53947805E-08,  3.84301239E-11,  2.11993195E+04,
                       3.87738109E+01]),
                NASA([992.45, 5000.00],
                     [ 2.42201531E+01,  5.14040751E-02, -1.94056379E-05,
                       3.62910452E-09, -2.61722320E-13,  1.29880616E+04,
                      -1.00257920E+02])))

species(name=u'S(309)',
        atoms='H:16 C:12',
        thermo=(NASA([100.00, 967.86],
                     [-1.32209228E+00,  8.47378361E-02,  4.59787499E-05,
                      -1.23781967E-07,  5.42497769E-11,  2.23199283E+04,
                       3.57020946E+01]),
                NASA([967.86, 5000.00],
                     [ 2.71811605E+01,  4.57697461E-02, -1.58000646E-05,
                       2.92345730E-09, -2.14846023E-13,  1.31102045E+04,
                      -1.19952912E+02])))

species(name=u'S(642)',
        atoms='H:14 C:10',
        thermo=(NASA([100.00, 988.70],
                     [-1.28102885E+00,  9.73401935E-02, -3.96908570E-05,
                      -2.28883979E-08,  1.70599250E-11,  2.01333918E+04,
                       3.80613736E+01]),
                NASA([988.70, 5000.00],
                     [ 2.35618068E+01,  3.86218834E-02, -1.40063814E-05,
                       2.54246809E-09, -1.80004061E-13,  1.31784885E+04,
                      -9.18377566E+01])))

species(name=u'C7H8(846)',
        atoms='H:8 C:7',
        thermo=(NASA([100.00, 966.81],
                     [ 1.90138903E+00,  2.67868079E-02,  6.30523366E-05,
                      -9.95224287E-08,  3.94205761E-11,  1.54781489E+04,
                       1.80530900E+01]),
                NASA([966.81, 5000.00],
                     [ 1.41488720E+01,  2.45164605E-02, -8.51969957E-06,
                       1.61189695E-09, -1.20790154E-13,  1.08478608E+04,
                      -5.23192761E+01])))

species(name=u'C5H8(1009)',
        atoms='H:8 C:5',
        thermo=(NASA([100.00, 1049.25],
                     [ 2.01062155E+00,  3.15407187E-02,  2.07789480E-05,
                      -4.44088985E-08,  1.72419112E-11,  7.01383967E+03,
                       1.65768346E+01]),
                NASA([1049.25, 5000.00],
                     [ 1.14809937E+01,  2.45641673E-02, -1.08867259E-05,
                       2.16707025E-09, -1.59145781E-13,  3.42314914E+03,
                      -3.72078866E+01])))

species(name=u'S(1177)',
        atoms='H:16 C:12',
        thermo=(NASA([100.00, 990.56],
                     [-1.32892162E+00,  8.56175091E-02,  4.02422312E-05,
                      -1.13041663E-07,  4.85846312E-11,  2.10166900E+04,
                       3.92285904E+01]),
                NASA([990.56, 5000.00],
                     [ 2.63931502E+01,  4.91374623E-02, -1.87932792E-05,
                       3.60169126E-09, -2.65302821E-13,  1.18222932E+04,
                      -1.12939530E+02])))

species(name=u'S(1225)',
        atoms='H:12 C:8',
        thermo=(NASA([100.00, 1002.94],
                     [ 1.69489980E-02,  7.28189377E-02, -2.16585698E-05,
                      -2.40807783E-08,  1.44597041E-11,  1.38562447E+04,
                       3.07679077E+01]),
                NASA([1002.94, 5000.00],
                     [ 1.77276883E+01,  3.45993801E-02, -1.29781828E-05,
                       2.37500136E-09, -1.67643536E-13,  8.67334638E+03,
                      -6.28559377E+01])))

species(name=u'S(1229)',
        atoms='H:14 C:10',
        thermo=(NASA([100.00, 986.06],
                     [-1.44909215E+00,  1.01424899E-01, -4.84844562E-05,
                      -1.57983685E-08,  1.50673204E-11,  1.99508936E+04,
                       3.67659825E+01]),
                NASA([986.06, 5000.00],
                     [ 2.42859453E+01,  3.77392366E-02, -1.35336379E-05,
                       2.44095589E-09, -1.72311717E-13,  1.28965094E+04,
                      -9.70649724E+01])))

species(name=u'S(1493)',
        atoms='H:14 C:10',
        thermo=(NASA([100.00, 988.70],
                     [-1.28102885E+00,  9.73401935E-02, -3.96908570E-05,
                      -2.28883979E-08,  1.70599250E-11,  2.01333918E+04,
                       3.80613736E+01]),
                NASA([988.70, 5000.00],
                     [ 2.35618068E+01,  3.86218834E-02, -1.40063814E-05,
                       2.54246809E-09, -1.80004061E-13,  1.31784885E+04,
                      -9.18377566E+01])))

species(name=u'S(1502)',
        atoms='H:10 C:6',
        thermo=(NASA([100.00, 1036.89],
                     [ 1.50874221E+00,  4.27939676E-02,  1.00407781E-05,
                      -3.76644958E-08,  1.56320088E-11,  7.74480595E+03,
                       2.33493905E+01]),
                NASA([1036.89, 5000.00],
                     [ 1.16601041E+01,  3.10397815E-02, -1.26024374E-05,
                       2.38495409E-09, -1.70150727E-13,  4.16633351E+03,
                      -3.30972272E+01])))

species(name=u'S(1516)',
        atoms='H:14 C:9',
        thermo=(NASA([100.00, 1033.76],
                     [-5.65335332E-01,  8.47310838E-02, -3.08977113E-05,
                      -1.77732609E-08,  1.20851089E-11,  1.12058940E+04,
                       3.63093306E+01]),
                NASA([1033.76, 5000.00],
                     [ 1.85555439E+01,  4.28306026E-02, -1.66554054E-05,
                       3.06539570E-09, -2.15112108E-13,  5.53819046E+03,
                      -6.48648690E+01])))

species(name=u'S(1613)',
        atoms='H:16 C:11',
        thermo=(NASA([100.00, 1025.43],
                     [-2.16580454E+00,  1.17805373E-01, -7.17371965E-05,
                       5.89731094E-09,  7.03868955E-12,  1.56429316E+04,
                       4.18388967E+01]),
                NASA([1025.43, 5000.00],
                     [ 2.48394458E+01,  4.66278259E-02, -1.75945644E-05,
                       3.18837308E-09, -2.22176150E-13,  8.30831519E+03,
                      -9.78823400E+01])))

species(name=u'S(1702)',
        atoms='H:12 C:7',
        thermo=(NASA([100.00, 1072.04],
                     [ 7.34369533E-01,  6.01626595E-02, -1.25662011E-05,
                      -1.95620583E-08,  9.83589598E-12,  4.92869796E+03,
                       2.83182178E+01]),
                NASA([1072.04, 5000.00],
                     [ 1.28661532E+01,  3.85784978E-02, -1.55014561E-05,
                       2.86935600E-09, -2.00451385E-13,  9.66694499E+02,
                      -3.74015701E+01])))

species(name=u'C5H8(1713)',
        atoms='H:8 C:5',
        thermo=(NASA([100.00, 1004.86],
                     [ 1.98273955E+00,  3.49998332E-02,  6.98515281E-06,
                      -3.05031334E-08,  1.32246652E-11,  6.96521034E+03,
                       1.60818191E+01]),
                NASA([1004.86, 5000.00],
                     [ 1.01246420E+01,  2.42323877E-02, -9.24886971E-06,
                       1.70115950E-09, -1.20059732E-13,  4.23624320E+03,
                      -2.86745770E+01])))

species(name=u'S(1716)',
        atoms='H:10 C:7',
        thermo=(NASA([100.00, 960.58],
                     [ 5.40181259E-01,  6.14551349E-02, -1.12030877E-05,
                      -3.44223146E-08,  1.91302393E-11,  1.31395193E+04,
                       2.36489181E+01]),
                NASA([960.58, 5000.00],
                     [ 1.78943603E+01,  2.43013009E-02, -8.01425042E-06,
                       1.41741320E-09, -1.01048701E-13,  8.18561381E+03,
                      -6.78088657E+01])))

species(name=u'S(1744)',
        atoms='H:16 C:11',
        thermo=(NASA([100.00, 1025.43],
                     [-2.16580454E+00,  1.17805373E-01, -7.17371965E-05,
                       5.89731094E-09,  7.03868955E-12,  1.56429316E+04,
                       4.18388967E+01]),
                NASA([1025.43, 5000.00],
                     [ 2.48394458E+01,  4.66278259E-02, -1.75945644E-05,
                       3.18837308E-09, -2.22176150E-13,  8.30831519E+03,
                      -9.78823400E+01])))

species(name=u'S(1756)',
        atoms='H:10 C:6',
        thermo=(NASA([100.00, 1020.63],
                     [ 9.97427413E-01,  5.59777045E-02, -2.05880600E-05,
                      -1.17182304E-08,  8.13452041E-12,  6.30749855E+03,
                       2.38941836E+01]),
                NASA([1020.63, 5000.00],
                     [ 1.33828218E+01,  2.83661253E-02, -1.07663110E-05,
                       1.95749020E-09, -1.36589418E-13,  2.68926840E+03,
                      -4.14511818E+01])))

species(name=u'CH4(2297)',
        atoms='H:4 C:1',
        thermo=(NASA([100.00, 1084.12],
                     [ 4.20541524E+00, -5.35557362E-03,  2.51123265E-05,
                      -2.13762843E-08,  5.97523937E-12, -1.01619433E+04,
                      -9.21279283E-01]),
                NASA([1084.12, 5000.00],
                     [ 9.08265721E-01,  1.14540858E-02, -4.57173828E-06,
                       8.29191671E-10, -5.66314895E-14, -9.71997444E+03,
                       1.39930944E+01])))

species(name=u'C4H8(2335)',
        atoms='H:8 C:4',
        thermo=(NASA([100.00, 1061.33],
                     [ 2.52504770E+00,  2.64752782E-02,  7.08359238E-06,
                      -2.07731462E-08,  8.00430055E-12, -4.02607130E+03,
                       1.28857274E+01]),
                NASA([1061.33, 5000.00],
                     [ 6.48672669E+00,  2.49943921E-02, -9.83283171E-06,
                       1.79343299E-09, -1.24008235E-13, -5.62452310E+03,
                      -1.00316397E+01])))

species(name=u'C2H6(2340)',
        atoms='H:6 C:2',
        thermo=(NASA([100.00, 1012.42],
                     [ 3.72239291E+00,  1.65083841E-03,  3.44175530E-05,
                      -3.76858229E-08,  1.24450657E-11, -1.15575901E+04,
                       4.68247999E+00]),
                NASA([1012.42, 5000.00],
                     [ 2.82848257E+00,  1.73040568E-02, -6.73334245E-06,
                       1.23742024E-09, -8.65676410E-14, -1.19978080E+04,
                       5.93811707E+00])))

species(name=u'S(2819)',
        atoms='H:14 C:10',
        thermo=(NASA([100.00, 996.17],
                     [-1.40484009E+00,  1.01563983E-01, -5.26982344E-05,
                      -8.95924912E-09,  1.20629221E-11,  1.84520053E+04,
                       3.70450641E+01]),
                NASA([996.17, 5000.00],
                     [ 2.33617794E+01,  3.90818563E-02, -1.42761516E-05,
                       2.57812553E-09, -1.81029820E-13,  1.16835351E+04,
                      -9.15504001E+01])))

species(name=u'S(5437)',
        atoms='H:12 C:8',
        thermo=(NASA([100.00, 1021.26],
                     [ 7.53985134E-01,  5.54737580E-02,  1.64056882E-05,
                      -5.35007205E-08,  2.22537519E-11,  6.70285570E+03,
                       2.47137649E+01]),
                NASA([1021.26, 5000.00],
                     [ 1.38669785E+01,  4.08869398E-02, -1.61807825E-05,
                       3.02899919E-09, -2.15337939E-13,  2.10681458E+03,
                      -4.82135001E+01])))

species(name=u'S(5780)',
        atoms='H:18 C:12',
        thermo=(NASA([100.00, 1040.72],
                     [-1.78152717E+00,  1.02344867E-01, -7.30277622E-06,
                      -5.64704087E-08,  2.63849888E-11,  9.58587612E+03,
                       4.29235595E+01]),
                NASA([1040.72, 5000.00],
                     [ 2.33477144E+01,  6.00234342E-02, -2.45133318E-05,
                       4.65330084E-09, -3.32663872E-13,  1.41677224E+03,
                      -9.34315711E+01])))

species(name=u'S(5833)',
        atoms='H:12 C:8',
        thermo=(NASA([100.00, 980.88],
                     [ 1.02628473E+00,  4.35638797E-02,  5.80152877E-05,
                      -1.01914346E-07,  4.06636869E-11,  6.76460672E+03,
                       2.61203499E+01]),
                NASA([980.88, 5000.00],
                     [ 1.58753488E+01,  3.66998452E-02, -1.35932979E-05,
                       2.55945128E-09, -1.86950351E-13,  1.26876456E+03,
                      -5.83969656E+01])))

species(name=u'S(5882)',
        atoms='H:10 C:7',
        thermo=(NASA([100.00, 965.28],
                     [ 1.87030258E+00,  2.35638061E-02,  8.85280057E-05,
                      -1.28884638E-07,  5.00028103E-11,  1.14329576E+04,
                       2.23338549E+01]),
                NASA([965.28, 5000.00],
                     [ 1.48833199E+01,  2.82185097E-02, -9.73514813E-06,
                       1.85049253E-09, -1.39592880E-13,  6.19164770E+03,
                      -5.41228108E+01])))

species(name=u'S(6254)',
        atoms='H:10 C:6',
        thermo=(NASA([100.00, 971.31],
                     [ 2.44424565E+00,  1.34684125E-02,  9.57812923E-05,
                      -1.26887778E-07,  4.73968317E-11, -2.38676442E+03,
                       1.80697732E+01]),
                NASA([971.31, 5000.00],
                     [ 1.12591928E+01,  2.98158863E-02, -1.07694072E-05,
                       2.04826931E-09, -1.52286576E-13, -6.58274645E+03,
                      -3.69852612E+01])))

species(name=u'C5H8(6740)',
        atoms='H:8 C:5',
        thermo=(NASA([100.00, 959.53],
                     [ 2.96599822E+00,  2.60556131E-03,  1.02414599E-04,
                      -1.30522396E-07,  4.88008403E-11,  2.41000343E+03,
                       1.38859319E+01]),
                NASA([959.53, 5000.00],
                     [ 1.08346726E+01,  2.12080855E-02, -7.02528969E-06,
                       1.34707837E-09, -1.03775836E-13, -1.46645400E+03,
                      -3.60819011E+01])))

species(name=u'S(6808)',
        atoms='H:10 C:7',
        thermo=(NASA([100.00, 991.78],
                     [ 2.11642957E+00,  1.59547835E-02,  1.13046954E-04,
                      -1.48692586E-07,  5.46075837E-11,  8.02069712E+03,
                       1.83217378E+01]),
                NASA([991.78, 5000.00],
                     [ 1.34056495E+01,  3.52873902E-02, -1.42948991E-05,
                       2.84977229E-09, -2.14784437E-13,  2.59134239E+03,
                      -5.21316381E+01])))

species(name=u'S(7212)',
        atoms='H:16 C:11',
        thermo=(NASA([100.00, 1055.26],
                     [-7.16934033E-01,  7.99777755E-02,  2.47460939E-05,
                      -7.60765325E-08,  3.04719264E-11,  1.08712671E+04,
                       3.45992049E+01]),
                NASA([1055.26, 5000.00],
                     [ 1.87263617E+01,  6.09304512E-02, -2.58651935E-05,
                       4.97568388E-09, -3.56977609E-13,  3.72467816E+03,
                      -7.46676451E+01])))

species(name=u'S(8748)',
        atoms='H:16 C:10',
        thermo=(NASA([100.00, 1009.79],
                     [-4.45048443E-01,  7.52357607E-02,  2.29421116E-05,
                      -7.61789118E-08,  3.22677169E-11,  1.09762540E+03,
                       3.58919521E+01]),
                NASA([1009.79, 5000.00],
                     [ 1.87033089E+01,  5.18511167E-02, -2.02579442E-05,
                       3.79655445E-09, -2.71358999E-13, -5.44444285E+03,
                      -6.99192625E+01])))

species(name=u'S(9936)',
        atoms='H:14 C:10',
        thermo=(NASA([100.00, 1064.04],
                     [-6.60643484E-01,  8.69906580E-02, -3.11998499E-05,
                      -1.56232936E-08,  1.05247239E-11,  2.12729883E+04,
                       3.70353931E+01]),
                NASA([1064.04, 5000.00],
                     [ 1.76790234E+01,  4.82596725E-02, -1.91910232E-05,
                       3.53767595E-09, -2.46925866E-13,  1.56598495E+04,
                      -6.06181517E+01])))

species(name=u'X(1)',
        atoms='X:1',
        thermo=(NASA([100.00, 1554.80],