units(length='cm', time='s', quantity='mol', act_energy='kcal/mol')

ideal_gas(name='gas',
          elements="H D T C Ci O Oi N Ne Ar He Si S Cl X",
          species="""n-heptane  Ar         He         Ne         N2
                     C2H4(2)    C4H8-1(3)  C4H8-2(4)  C4H6(7)    C6H8(9)
                     S(181)     S(185)     C6H8(196)  S(284)     S(294)
                     S(295)     S(309)     S(320)     S(380)     S(647)
                     S(1211)""",
          reactions='gas-*',
          initial_state=state(temperature=300.0, pressure=OneAtm))

ideal_interface(name='surface1',
                elements="H D T C Ci O Oi N Ne Ar He Si S Cl X",
                species="""X(1)       HX(5)      C2H3X(37)  C4H5X(80)
                          C4H5X(81)  SX(441)    SX(442)    SX(444)
                          SX(445)    SX(447)    SX(448)    SX(1179)
                          SX(1180)   SX(1232)   SX(1236)   SX(1254)""",
                site_density=2.72e-09,
                phases="gas",
          reactions='surface1-*',
                initial_state=state(temperature=300.0, pressure=OneAtm))

#-------------------------------------------------------------------------------
# Element data
#-------------------------------------------------------------------------------

element(symbol=u'X', atomic_mass=195.083)
element(symbol=u'Ci', atomic_mass=13.003)
element(symbol=u'D', atomic_mass=2.014)
element(symbol=u'Oi', atomic_mass=18.0)
element(symbol=u'T', atomic_mass=3.016)
#-------------------------------------------------------------------------------
# Species data
#-------------------------------------------------------------------------------

species(name=u'n-heptane',
        atoms='H:16 C:7',
        thermo=(NASA([100.00, 1262.75],
                     [-2.93512125E-03,  7.69375610E-02, -3.48031525E-05,
                       1.86160506E-09,  2.01550529E-12, -2.57829334E+04,
                       3.00312819E+01]),
                NASA([1262.75, 5000.00],
                     [ 1.38379971E+01,  4.85941816E-02, -1.95472819E-05,
                       3.52833289E-09, -2.39061569E-13, -3.05142526E+04,
                      -4.48654615E+01])))

species(name=u'Ar',
        atoms='Ar:1',
        thermo=(NASA([200.00, 1000.00],
                     [ 2.50000000E+00,  0.00000000E+00,  0.00000000E+00,
                       0.00000000E+00,  0.00000000E+00, -7.45375000E+02,
                       4.37967000E+00]),
                NASA([1000.00, 6000.00],
                     [ 2.50000000E+00,  0.00000000E+00,  0.00000000E+00,
                       0.00000000E+00,  0.00000000E+00, -7.45375000E+02,
                       4.37967000E+00])))

species(name=u'He',
        atoms='He:1',
        thermo=(NASA([200.00, 1000.00],
                     [ 2.50000000E+00,  0.00000000E+00,  0.00000000E+00,
                       0.00000000E+00,  0.00000000E+00, -7.45375000E+02,
                       9.28724000E-01]),
                NASA([1000.00, 6000.00],
                     [ 2.50000000E+00,  0.00000000E+00,  0.00000000E+00,
                       0.00000000E+00,  0.00000000E+00, -7.45375000E+02,
                       9.28724000E-01])))

species(name=u'Ne',
        atoms='Ne:1',
        thermo=(NASA([200.00, 1000.00],
                     [ 2.50000000E+00,  0.00000000E+00,  0.00000000E+00,
                       0.00000000E+00,  0.00000000E+00, -7.45375000E+02,
                       3.35532000E+00]),
                NASA([1000.00, 6000.00],
                     [ 2.50000000E+00,  0.00000000E+00,  0.00000000E+00,
                       0.00000000E+00,  0.00000000E+00, -7.45375000E+02,
                       3.35532000E+00])))

species(name=u'N2',
        atoms='N:2',
        thermo=(NASA([200.00, 1000.00],
                     [ 3.53101000E+00, -1.23661000E-04, -5.02999000E-07,
                       2.43531000E-09, -1.40881000E-12, -1.04698000E+03,
                       2.96747000E+00]),
                NASA([1000.00, 6000.00],
                     [ 2.95258000E+00,  1.39690000E-03, -4.92632000E-07,
                       7.86010000E-11, -4.60755000E-15, -9.23949000E+02,
                       5.87189000E+00])))

species(name=u'C2H4(2)',
        atoms='H:4 C:2',
        thermo=(NASA([100.00, 979.37],
                     [ 3.97469045E+00, -4.75813325E-03,  4.16772624E-05,
                      -4.51377676E-08,  1.54218287E-11,  4.91540855E+03,
                       3.62439976E+00]),
                NASA([979.37, 5000.00],
                     [ 3.55670229E+00,  1.10625819E-02, -4.17009559E-06,
                       7.85564219E-10, -5.70042086E-14,  4.32042473E+03,
                       2.17665377E+00])))

species(name=u'C4H8-1(3)',
        atoms='H:8 C:4',
        thermo=(NASA([100.00, 1007.28],
                     [ 2.58772978E+00,  2.32777883E-02,  1.93412653E-05,
                      -3.55496729E-08,  1.36906178E-11, -1.91872929E+03,
                       1.45750592E+01]),
                NASA([1007.28, 5000.00],
                     [ 7.20516863E+00,  2.36361619E-02, -9.03150325E-06,
                       1.65392736E-09, -1.16019318E-13, -3.79733809E+03,
                      -1.24426086E+01])))

species(name=u'C4H8-2(4)',
        atoms='H:8 C:4',
        thermo=(NASA([100.00, 1157.78],
                     [ 2.51999305E+00,  2.76811707E-02,  9.44135366E-07,
                      -1.25013222E-08,  4.67160311E-12, -3.34374810E+03,
                       1.30195268E+01]),
                NASA([1157.78, 5000.00],
                     [ 6.04218222E+00,  2.60073554E-02, -1.04844041E-05,
                       1.90882450E-09, -1.30601743E-13, -4.86273126E+03,
                      -7.52672501E+00])))

species(name=u'C4H6(7)',
        atoms='H:6 C:4',
        thermo=(NASA([100.00, 946.05],
                     [ 2.80594317E+00,  1.02590609E-02,  6.17237648E-05,
                      -9.01611778E-08,  3.59103084E-11,  1.16584993E+04,
                       1.20623208E+01]),
                NASA([946.05, 5000.00],
                     [ 1.24695345E+01,  1.00551088E-02, -2.41190446E-06,
                       4.57038145E-10, -3.93127871E-14,  8.01071120E+03,
                      -4.36383840E+01])))

species(name=u'C6H8(9)',
        atoms='H:8 C:6',
        thermo=(NASA([100.00, 941.22],
                     [ 1.38427839E+00,  4.14411676E-02,  1.94286778E-05,
                      -6.16687823E-08,  2.86503237E-11,  1.76317462E+04,
                       1.93257559E+01]),
                NASA([941.22, 5000.00],
                     [ 1.69619725E+01,  1.57221629E-02, -4.10117912E-06,
                       6.95735258E-10, -5.26520576E-14,  1.29061653E+04,
                      -6.44097805E+01])))

species(name=u'S(181)',
        atoms='H:16 C:12',
        thermo=(NASA([100.00, 985.43],
                     [-1.88309559E+00,  1.07042782E-01, -2.70575175E-05,
                      -4.30521591E-08,  2.47769762E-11,  4.00783515E+04,
                       4.74622652E+01]),
                NASA([985.43, 5000.00],
                     [ 2.44924173E+01,  5.06802141E-02, -1.84364732E-05,
                       3.32429337E-09, -2.33628170E-13,  3.24184482E+04,
                      -9.18874447E+01])))

species(name=u'S(185)',
        atoms='H:16 C:12',
        thermo=(NASA([100.00, 992.46],
                     [-1.36729922E+00,  9.09281156E-02,  1.69886510E-05,
                      -8.53926708E-08,  3.84292138E-11,  2.11993211E+04,
                       3.87739443E+01]),
                NASA([992.46, 5000.00],
                     [ 2.42203013E+01,  5.14038229E-02, -1.94054924E-05,
                       3.62907015E-09, -2.61719468E-13,  1.29879994E+04,
                      -1.00258754E+02])))

species(name=u'C6H8(196)',
        atoms='H:8 C:6',
        thermo=(NASA([100.00, 972.94],
                     [ 1.82685810E+00,  3.47046669E-02,  2.41069029E-05,
                      -5.44846391E-08,  2.29388162E-11,  1.99100662E+04,
                       1.81393407E+01]),
                NASA([972.94, 5000.00],
                     [ 1.21686297E+01,  2.40472622E-02, -8.58150888E-06,
                       1.57033807E-09, -1.12795147E-13,  1.63897076E+04,
                      -3.92195705E+01])))

species(name=u'S(284)',
        atoms='H:16 C:12',
        thermo=(NASA([100.00, 983.17],
                     [-2.05095161E+00,  1.11124753E-01, -3.58400992E-05,
                      -3.59787177E-08,  2.27925508E-11,  3.98958446E+04,
                       4.68592961E+01]),
                NASA([983.17, 5000.00],
                     [ 2.52168920E+01,  4.97970922E-02, -1.79634953E-05,
                       3.22273253E-09, -2.25932210E-13,  3.21362966E+04,
                      -9.64234656E+01])))

species(name=u'S(294)',
        atoms='H:16 C:12',
        thermo=(NASA([100.00, 965.49],
                     [-1.47987726E+00,  8.73167556E-02,  4.32187218E-05,
                      -1.24336790E-07,  5.52385289E-11,  1.86240452E+04,
                       3.89679419E+01]),
                NASA([965.49, 5000.00],
                     [ 2.86820772E+01,  4.34926990E-02, -1.47505886E-05,
                       2.73170070E-09, -2.02206422E-13,  9.01821545E+03,
                      -1.25070758E+02])))

species(name=u'S(295)',
        atoms='H:16 C:12',
        thermo=(NASA([100.00, 1029.62],
                     [-1.39422675E+00,  9.33874022E-02,  5.18273530E-06,
                      -6.73313537E-08,  3.01045032E-11,  2.34099191E+04,
                       3.84701059E+01]),
                NASA([1029.62, 5000.00],
                     [ 2.29264933E+01,  5.57246210E-02, -2.27288474E-05,
                       4.34065045E-09, -3.12487838E-13,  1.53898376E+04,
                      -9.41993344E+01])))

species(name=u'S(309)',
        atoms='H:16 C:12',
        thermo=(NASA([100.00, 980.77],
                     [-2.21845767E+00,  1.15202314E-01, -4.46058694E-05,
                      -2.89291868E-08,  2.08193099E-11,  3.97133228E+04,
                       4.48687956E+01]),
                NASA([980.77, 5000.00],
                     [ 2.59409239E+01,  4.89148037E-02, -1.74910308E-05,
                       3.12129858E-09, -2.18247123E-13,  3.18543053E+04,
                      -1.02343337E+02])))

species(name=u'S(320)',
        atoms='H:16 C:12',
        thermo=(NASA([100.00, 989.30],
                     [-1.49883886E+00,  8.97246983E-02,  3.13672885E-05,
                      -1.05842642E-07,  4.65441283E-11,  2.08342711E+04,
                       3.86329531E+01]),
                NASA([989.30, 5000.00],
                     [ 2.71236610E+01,  4.82438837E-02, -1.83141927E-05,
                       3.49867411E-09, -2.57485246E-13,  1.15376658E+04,
                      -1.17509419E+02])))

species(name=u'S(380)',
        atoms='H:15 C:12',
        thermo=(NASA([100.00, 994.95],
                     [-9.10462824E-01,  7.23058358E-02,  7.86556012E-05,
                      -1.50121989E-07,  6.04743286E-11,  3.34535270E+04,
                       3.72739813E+01]),
                NASA([994.95, 5000.00],
                     [ 2.59406530E+01,  5.12030798E-02, -2.04597927E-05,
                       4.01928872E-09, -2.99925908E-13,  2.38117854E+04,
                      -1.13733365E+02])))

species(name=u'S(647)',
        atoms='H:16 C:12',
        thermo=(NASA([100.00, 967.86],
                     [-1.32199649E+00,  8.47366715E-02,  4.59829753E-05,
                      -1.23787643E-07,  5.42522776E-11,  2.23199242E+04,
                       3.57017535E+01]),
                NASA([967.86, 5000.00],
                     [ 2.71808180E+01,  4.57703342E-02, -1.58004061E-05,
                       2.92353835E-09, -2.14852771E-13,  1.31103467E+04,
                      -1.19950987E+02])))

species(name=u'S(1211)',
        atoms='H:15 C:12',
        thermo=(NASA([100.00, 970.90],
                     [-1.71524056E+00,  9.95436438E-02, -4.74497375E-06,
                      -7.04371857E-08,  3.56203157E-11,  3.34415606E+04,
                       3.83478399E+01]),
                NASA([970.90, 5000.00],
                     [ 2.67412339E+01,  4.44001680E-02, -1.54834531E-05,
                       2.80859048E-09, -2.01628794E-13,  2.49892500E+04,
                      -1.13169591E+02])))

species(name=u'X(1)',
        atoms='X:1',
        thermo=(NASA([100.00, 1554.81],
                     [ 7.10134880E-03, -4.25615041E-05,  8.98521156E-08,
                      -7.80182565E-11,  2.32462166E-14, -8.76099414E-01,
                      -3.11209498E-02]),
                NASA([1554.81, 5000.00],
                     [ 1.60301287E-01, -2.52237396E-04,  1.14182282E-07,
                      -1.21473809E-11,  3.85806589E-16, -7.08108147E+01,
                      -9.09535600E-01])))

species(name=u'HX(5)',
        atoms='H:1 X:1',
        thermo=(NASA([100.00, 952.91],
                     [-3.80957846E-01,  5.47219393E-03,  2.60946928E-06,
                      -9.65008412E-09,  4.63967474E-12, -9.42254388E+03,
                       1.01722845E+00]),
                NASA([952.91, 5000.00],
                     [ 2.80337105E+00, -5.41002993E-04,  4.99482316E-07,
                      -7.54902555E-11,  3.06721398E-15, -1.03632825E+04,
                      -1.59435356E+01])))

species(name=u'C2H3X(37)',
        atoms='H:3 C:2 X:1',
        thermo=(NASA([100.00, 928.60],
                     [ 3.83104022E+00, -8.76542826E-03,  6.98017027E-05,
                      -8.68052566E-08,  3.33256145E-11,  1.24795129E+04,
                      -1.81156365E+01]),
                NASA([928.60, 5000.00],
                     [ 8.78015372E+00,  1.92565992E-03,  8.25424482E-07,
                      -1.63654020E-10,  5.70926320E-15,  1.01802749E+04,
                      -4.90566656E+01])))

species(name=u'C4H5X(80)',
        atoms='H:5 C:4 X:1',
        thermo=(NASA([100.00, 936.52],
                     [ 2.68471814E+00,  1.36244384E-02,  5.32592262E-05,
                      -8.32913017E-08,  3.41499632E-11,  1.45727486E+04,
                      -1.06510519E+01]),
                NASA([936.52, 5000.00],
                     [ 1.29012238E+01,  8.96922349E-03, -1.71920361E-06,
                       2.89745198E-10, -2.58686934E-14,  1.09497108E+04,
                      -6.83963240E+01])))

species(name=u'C4H5X(81)',
        atoms='H:5 C:4 X:1',
        thermo=(NASA([100.00, 928.62],
                     [ 2.64239936E+00,  8.31017311E-03,  8.12180670E-05,
                      -1.21403473E-07,  4.98652517E-11,  1.97556542E+04,
                      -1.03935602E+01]),
                NASA([928.62, 5000.00],
                     [ 1.69488231E+01,  2.00857887E-03,  2.03445917E-06,
                      -4.02602194E-10,  1.85354193E-14,  1.47132543E+04,
                      -9.11978215E+01])))

species(name=u'SX(441)',
        atoms='H:15 C:12 X:1',
        thermo=(NASA([100.00, 987.58],
                     [-9.53713925E-01,  6.94572247E-02,  9.89936370E-05,
                      -1.75787432E-07,  7.03663139E-11,  2.37217886E+04,
                       1.65077313E+01]),
                NASA([987.58, 5000.00],
                     [ 2.75831421E+01,  5.08327281E-02, -1.99851684E-05,
                       3.94202632E-09, -2.96890295E-13,  1.33570585E+04,
                      -1.44748006E+02])))

species(name=u'SX(442)',
        atoms='H:15 C:12 X:1',
        thermo=(NASA([100.00, 979.07],
                     [-1.33394374E+00,  8.15321511E-02,  6.10816588E-05,
                      -1.40546765E-07,  5.96442085E-11,  2.77657827E+04,
                       1.53200353E+01]),
                NASA([979.07, 5000.00],
                     [ 2.87998835E+01,  4.54042518E-02, -1.68329162E-05,
                       3.24882631E-09, -2.43579235E-13,  1.76960854E+04,
                      -1.50711803E+02])))

species(name=u'SX(444)',
        atoms='H:15 C:12 X:1',
        thermo=(NASA([100.00, 975.89],
                     [-1.51407147E+00,  8.61130325E-02,  4.96934627E-05,
                      -1.31251591E-07,  5.71173975E-11,  2.74628669E+04,
                       1.54839709E+01]),
                NASA([975.89, 5000.00],
                     [ 2.97267739E+01,  4.33704831E-02, -1.57322822E-05,
                       3.01848761E-09, -2.26506458E-13,  1.73031315E+04,
                      -1.55285446E+02])))

species(name=u'SX(445)',
        atoms='H:15 C:12 X:1',
        thermo=(NASA([100.00, 975.89],
                     [-1.51407147E+00,  8.61130325E-02,  4.96934627E-05,
                      -1.31251591E-07,  5.71173975E-11,  2.74628669E+04,
                       1.54839709E+01]),
                NASA([975.89, 5000.00],
                     [ 2.97267739E+01,  4.33704831E-02, -1.57322822E-05,
                       3.01848761E-09, -2.26506458E-13,  1.73031315E+04,
                      -1.55285446E+02])))

species(name=u'SX(447)',
        atoms='H:15 C:12 X:1',
        thermo=(NASA([100.00, 970.72],
                     [-1.55418828E+00,  8.50307808E-02,  5.78315895E-05,
                      -1.43136005E-07,  6.21616299E-11,  2.85792293E+04,
                       1.55572199E+01]),
                NASA([970.72, 5000.00],
                     [ 3.11251361E+01,  4.10895768E-02, -1.44500776E-05,
                       2.77758605E-09, -2.10875624E-13,  1.79604814E+04,
                      -1.63146273E+02])))

species(name=u'SX(448)',
        atoms='H:15 C:12 X:1',
        thermo=(NASA([100.00, 970.72],
                     [-1.55418828E+00,  8.50307808E-02,  5.78315895E-05,
                      -1.43136005E-07,  6.21616299E-11,  2.85792293E+04,
                       1.55572199E+01]),
                NASA([970.72, 5000.00],
                     [ 3.11251361E+01,  4.10895768E-02, -1.44500776E-05,
                       2.77758605E-09, -2.10875624E-13,  1.79604814E+04,
                      -1.63146273E+02])))

species(name=u'SX(1179)',
        atoms='H:15 C:12 X:1',
        thermo=(NASA([100.00, 964.55],
                     [-1.75663046E+00,  9.66637308E-02,  1.57517334E-05,
                      -9.63900725E-08,  4.56756826E-11,  2.37097477E+04,
                       1.75754826E+01]),
                NASA([964.55, 5000.00],
                     [ 2.84207995E+01,  4.39700434E-02, -1.49756932E-05,
                       2.72372936E-09, -1.97977080E-13,  1.45178871E+04,
                      -1.44394968E+02])))

species(name=u'SX(1180)',
        atoms='H:15 C:12 X:1',
        thermo=(NASA([100.00, 977.07],
                     [-1.29327290E+00,  8.66756616E-02,  3.43327954E-05,
                      -1.07199136E-07,  4.72015688E-11,  2.71477989E+04,
                       1.53278090E+01]),
                NASA([977.07, 5000.00],
                     [ 2.53349806E+01,  4.91681128E-02, -1.78612793E-05,
                       3.31545729E-09, -2.40571113E-13,  1.85311191E+04,
                      -1.29986732E+02])))

species(name=u'SX(1232)',
        atoms='H:15 C:12 X:1',
        thermo=(NASA([100.00, 983.66],
                     [-7.54706495E-01,  6.29303369E-02,  1.18134858E-04,
                      -1.95882731E-07,  7.75313256E-11,  2.34825371E+04,
                       2.13272429E+01]),
                NASA([983.66, 5000.00],
                     [ 2.77155316E+01,  5.01708379E-02, -1.94957740E-05,
                       3.86087363E-09, -2.92856366E-13,  1.28978592E+04,
                      -1.40888537E+02])))

species(name=u'SX(1236)',
        atoms='H:15 C:12 X:1',
        thermo=(NASA([100.00, 987.58],
                     [-9.53713925E-01,  6.94572247E-02,  9.89936370E-05,
                      -1.75787432E-07,  7.03663139E-11,  2.37217886E+04,
                       1.65077313E+01]),
                NASA([987.58, 5000.00],
                     [ 2.75831421E+01,  5.08327281E-02, -1.99851684E-05,
                       3.94202632E-09, -2.96890295E-13,  1.33570585E+04,
                      -1.44748006E+02])))

species(name=u'SX(1254)',
        atoms='H:15 C:12 X:1',
        thermo=(NASA([100.00, 995.86],
                     [-1.21928871E+00,  7.77426590E-02,  7.32774880E-05,
                      -1.49078689E-07,  6.08495282E-11,  2.58912850E+04,
                       1.36218378E+01]),
                NASA([995.86, 5000.00],
                     [ 2.80245364E+01,  5.00393685E-02, -2.01925940E-05,
                       4.00069614E-09, -3.00316386E-13,  1.56159217E+04,
                      -1.49688018E+02])))

#-------------------------------------------------------------------------------
# Reaction data
#-------------------------------------------------------------------------------
#  Reaction index: Chemkin #1; RMG #547
#  Template reaction: 1,4_Linear_birad_scission
#  Flux pairs: S(309), C6H8(196); S(309), C6H8(196);
#  Exact match found for rate rule [RJJ]
#  Euclidian distance = 0
#  family: 1,4_Linear_birad_scission
#  Ea raised from 0.0 to 1.4 kJ/mol to match endothermicity of reaction.

# Reaction 1
reaction('S(309) <=> C6H8(196) + C6H8(196)', [5.000000e+12, 0.0, 0.338],
         id='gas-1')
#  Reaction index: Chemkin #2; RMG #558
#  Template reaction: Diels_alder_addition
#  Flux pairs: C6H8(196), S(320); C6H8(196), S(320);
#  Estimated using template [diene_unsub_unsub_out;diene_in;ene] for rate rule [diene_unsub_unsub_out;diene_in_HDe;ene_De2_2H]
#  Euclidian distance = 2.2360679775
#  Multiplied by reaction path degeneracy 2.0
#  family: Diels_alder_addition

# Reaction 2
reaction('C6H8(196) + C6H8(196) <=> S(320)', [3.076471e+08, 0.441, 24.113],
         options='duplicate',
         id='gas-2')
#  Reaction index: Chemkin #3; RMG #561
#  Template reaction: Diels_alder_addition
#  Flux pairs: C6H8(196), S(320); C6H8(196), S(320);
#  Estimated using template [diene_unsub_unsub_out;diene_in;ene] for rate rule [diene_unsub_unsub_out;diene_in_DeH;ene_2H_De2]
#  Euclidian distance = 2.2360679775
#  family: Diels_alder_addition

# Reaction 3
reaction('C6H8(196) + C6H8(196) <=> S(320)', [1.538235e+08, 0.441, 24.113],
         options='duplicate',
         id='gas-3')
#  Reaction index: Chemkin #4; RMG #609
#  Template reaction: Birad_recombination
#  Flux pairs: S(309), S(320);
#  Estimated using template [R6_SSSDS;C_rad_out_single;Cpri_rad_out_2H] for rate rule [R6_SSSDS;C_rad_out_TwoDe;Cpri_rad_out_2H]
#  Euclidian distance = 2.0
#  Multiplied by reaction path degeneracy 4.0
#  family: Birad_recombination

# Reaction 4
reaction('S(309) <=> S(320)', [8.000000e+12, 0.0, 1.8],
         id='gas-4')
#  Reaction index: Chemkin #5; RMG #507
#  Template reaction: 1,4_Linear_birad_scission
#  Flux pairs: S(284), C6H8(196); S(284), C6H8(9);
#  Exact match found for rate rule [RJJ]
#  Euclidian distance = 0
#  family: 1,4_Linear_birad_scission

# Reaction 5
reaction('S(284) <=> C6H8(9) + C6H8(196)', [5.000000e+12, 0.0, 0.0],
         id='gas-5')
#  Reaction index: Chemkin #6; RMG #313
#  Template reaction: 1,4_Linear_birad_scission
#  Flux pairs: S(181), C6H8(9); S(181), C6H8(9);
#  Exact match found for rate rule [RJJ]
#  Euclidian distance = 0
#  family: 1,4_Linear_birad_scission

# Reaction 6
reaction('S(181) <=> C6H8(9) + C6H8(9)', [5.000000e+12, 0.0, 0.0],
         id='gas-6')
#  Reaction index: Chemkin #7; RMG #518
#  Template reaction: Diels_alder_addition
#  Flux pairs: C6H8(196), S(294); C6H8(9), S(294);
#  Estimated using template [diene_unsub_unsub_out;diene_in;ene_HDe_2H] for rate rule [diene_unsub_unsub_out;diene_in_HDe;ene_HDe_2H]
#  Euclidian distance = 1.0
#  Multiplied by reaction path degeneracy 4.0
#  family: Diels_alder_addition

# Reaction 7
reaction('C6H8(9) + C6H8(196) <=> S(294)', [1.205866e+10, 0.0, 21.57],
         id='gas-7')
#  Reaction index: Chemkin #8; RMG #1072
#  Template reaction: Birad_recombination
#  Flux pairs: S(284), S(294);
#  From training reaction 1 used for R6_SSSDS;C_rad_out_H/OneDe;Cpri_rad_out_2H
#  Exact match found for rate rule [R6_SSSDS;C_rad_out_H/OneDe;Cpri_rad_out_2H]
#  Euclidian distance = 0
#  Multiplied by reaction path degeneracy 2.0
#  family: Birad_recombination

# Reaction 8
reaction('S(284) <=> S(294)', [4.000000e+12, 0.0, 1.8],
         id='gas-8')
#  Reaction index: Chemkin #9; RMG #318
#  Template reaction: Diels_alder_addition
#  Flux pairs: C6H8(9), S(185); C6H8(9), S(185);
#  Estimated using an average for rate rule [diene_out;diene_in_2H;ene_HDe_2H]
#  Euclidian distance = 0
#  Multiplied by reaction path degeneracy 4.0
#  family: Diels_alder_addition

# Reaction 9
reaction('C6H8(9) + C6H8(9) <=> S(185)', [1.205866e+10, 0.0, 22.255],
         id='gas-9')
#  Reaction index: Chemkin #10; RMG #1358
#  Template reaction: Birad_recombination
#  Flux pairs: S(181), S(185);
#  Estimated using template [R6_SSSDS;C_rad_out_H/OneDe;Cpri_rad_out_single] for rate rule [R6_SSSDS;C_rad_out_H/OneDe;Cpri_rad_out_H/OneDe]
#  Euclidian distance = 2.0
#  Multiplied by reaction path degeneracy 2.0
#  family: Birad_recombination

# Reaction 10
reaction('S(181) <=> S(185)', [4.000000e+12, 0.0, 1.8],
         id='gas-10')
#  Reaction index: Chemkin #11; RMG #519
#  Template reaction: Diels_alder_addition
#  Flux pairs: C6H8(9), S(295); C6H8(196), S(295);
#  Estimated using template [diene_out;diene_in_2H;ene] for rate rule [diene_out;diene_in_2H;ene_De2_2H]
#  Euclidian distance = 2.0
#  Multiplied by reaction path degeneracy 2.0
#  family: Diels_alder_addition

# Reaction 11
reaction('C6H8(9) + C6H8(196) <=> S(295)', [2.674007e+06, 0.949, 24.077],
         id='gas-11')
#  Reaction index: Chemkin #12; RMG #1095
#  Template reaction: Birad_recombination
#  Flux pairs: S(284), S(295);
#  Estimated using template [R6_SSSDS;C_rad_out_single;Cpri_rad_out_single] for rate rule [R6_SSSDS;C_rad_out_TwoDe;Cpri_rad_out_H/OneDe]
#  Euclidian distance = 2.82842712475
#  family: Birad_recombination

# Reaction 12
reaction('S(284) <=> S(295)', [2.000000e+12, 0.0, 1.8],
         id='gas-12')
#  Reaction index: Chemkin #13; RMG #1594
#  Template reaction: 6_membered_central_C-C_shift
#  Flux pairs: S(295), S(294);
#  Estimated using template [1_5_unsaturated_hexane] for rate rule [1_5_hexadiene]
#  Euclidian distance = 1.0
#  Multiplied by reaction path degeneracy 2.0
#  family: 6_membered_central_C-C_shift

# Reaction 13
reaction('S(295) <=> S(294)', [1.242368e+11, 0.288, 35.146],
         id='gas-13')
#  Reaction index: Chemkin #14; RMG #1352
#  Template reaction: Birad_recombination
#  Flux pairs: S(181), S(647);
#  Estimated using template [Rn;C_rad_out_H/OneDe;Cpri_rad_out_2H] for rate rule [R8;C_rad_out_H/OneDe;Cpri_rad_out_2H]
#  Euclidian distance = 1.0
#  Multiplied by reaction path degeneracy 2.0
#  family: Birad_recombination

# Reaction 14
reaction('S(181) <=> S(647)', [4.000000e+12, 0.0, 1.8],
         id='gas-14')
#  Reaction index: Chemkin #15; RMG #5328
#  Template reaction: 1,2_shiftC
#  Flux pairs: S(380), S(1211);
#  Estimated using template [cCsCJ;CsJ-(CdCdCd)H;C] for rate rule [cCs(-R!HR!H)CJ;CsJ-(CdCdCd)H;C]
#  Euclidian distance = 1.0
#  family: 1,2_shiftC

# Reaction 15
reaction('S(380) <=> S(1211)', [4.745000e+09, 1.06, 49.6],
         id='gas-15')
#  Reaction index: Chemkin #1; RMG #36
#  Template reaction: Surface_Adsorption_Dissociative
#  Flux pairs: C2H4(2), C2H3X(37); C2H4(2), HX(5);
#  Exact match found for rate rule [C-H;VacantSite1;VacantSite2]
#  Euclidian distance = 0
#  Multiplied by reaction path degeneracy 4.0
#  family: Surface_Adsorption_Dissociative

# surface1 Reaction 1
surface_reaction('C2H4(2) + X(1) + X(1) <=> HX(5) + C2H3X(37)', stick(1.240000e-04, 0.0, 6.4),
                 id='surface1-1')
#  Reaction index: Chemkin #2; RMG #104
#  Template reaction: Surface_Adsorption_Dissociative
#  Flux pairs: C4H6(7), C2H3X(37); C4H6(7), C2H3X(37);
#  Exact match found for rate rule [C-C;VacantSite1;VacantSite2]
#  Euclidian distance = 0
#  family: Surface_Adsorption_Dissociative

# surface1 Reaction 2
surface_reaction('X(1) + X(1) + C4H6(7) <=> C2H3X(37) + C2H3X(37)', stick(6.595000e-04, 0.0, 27.922),
                 id='surface1-2')
#  Reaction index: Chemkin #3; RMG #115
#  Template reaction: Surface_Adsorption_Dissociative
#  Flux pairs: C4H6(7), C4H5X(81); C4H6(7), HX(5);
#  Exact match found for rate rule [C-H;VacantSite1;VacantSite2]
#  Euclidian distance = 0
#  Multiplied by reaction path degeneracy 4.0
#  family: Surface_Adsorption_Dissociative

# surface1 Reaction 3
surface_reaction('X(1) + X(1) + C4H6(7) <=> HX(5) + C4H5X(81)', stick(1.240000e-04, 0.0, 6.4),
                 id='surface1-3')
#  Reaction index: Chemkin #4; RMG #179
#  Template reaction: Surface_Adsorption_Dissociative
#  Flux pairs: C6H8(9), C4H5X(81); C6H8(9), C2H3X(37);
#  Exact match found for rate rule [C-C;VacantSite1;VacantSite2]
#  Euclidian distance = 0
#  Multiplied by reaction path degeneracy 2.0
#  family: Surface_Adsorption_Dissociative

# surface1 Reaction 4
surface_reaction('X(1) + X(1) + C6H8(9) <=> C4H5X(81) + C2H3X(37)', stick(1.319000e-03, 0.0, 30.121),
                 id='surface1-4')
#  Reaction index: Chemkin #5; RMG #114
#  Template reaction: Surface_Adsorption_Dissociative
#  Flux pairs: C4H6(7), C4H5X(80); C4H6(7), HX(5);
#  Exact match found for rate rule [C-H;VacantSite1;VacantSite2]
#  Euclidian distance = 0
#  Multiplied by reaction path degeneracy 2.0
#  family: Surface_Adsorption_Dissociative

# surface1 Reaction 5
surface_reaction('X(1) + X(1) + C4H6(7) <=> HX(5) + C4H5X(80)', stick(6.200000e-05, 0.0, 6.4),
                 id='surface1-5')
#  Reaction index: Chemkin #6; RMG #172
#  Template reaction: Surface_Migration
#  Flux pairs: C4H5X(81), C4H5X(80);
#  Exact match found for rate rule [*C]
#  Euclidian distance = 0
#  family: Surface_Migration

# surface1 Reaction 6
surface_reaction('C4H5X(81) <=> C4H5X(80)', [7.336000e+12, 0.0, 14.18],
                 id='surface1-6')
#  Reaction index: Chemkin #7; RMG #335
#  Template reaction: Surface_Adsorption_Dissociative
#  Flux pairs: C6H8(196), C4H5X(80); C6H8(196), C2H3X(37);
#  Exact match found for rate rule [C-C;VacantSite1;VacantSite2]