units(length='cm', time='s', quantity='mol', act_energy='kcal/mol')

ideal_gas(name='gas',
          elements="H D T C Ci O Oi N Ne Ar He Si S Cl X",
          species="""n-heptane   Ar          He          Ne
                     N2          C2H4(2)     C4H8-1(3)   C4H8-2(4)
                     C4H6(7)     C6H8(9)     C3H6(32)    H2(68)
                     S(181)      C6H10(352)  C8H12(353)  C8H12(586)
                     S(759)      C5H8c(782)  C6H10(892)  C8H12(894)
                     S(923)      S(1018)     S(1019)     CH4(1413)
                     S(1436)     C4H8(1443)  C2H6(1448)  S(2005)
                     S(2186)     S(2198)     S(2296)     S(3235)""",
          reactions='gas-*',
          initial_state=state(temperature=300.0, pressure=OneAtm))

ideal_interface(name='surface1',
                elements="H D T C Ci O Oi N Ne Ar He Si S Cl X",
                species="""X(1)        HX(5)       C2H3X(37)   allylX(38)
                          CH3X(39)    C2H5X(40)   C4H7X(41)   C4H7X(42)
                          C4H7X(43)   C4H7X(44)   C3H5X(45)   C4H7X(46)
                          C4H7X(47)   C4H5X(80)   C4H5X(81)   C6H9X(97)
                          C6H9X(98)   SX(111)     SX(112)     C6H7X(132)
                          C6H7X(133)  C6H7X(134)  SX(161)     C6H9X(192)
                          SX(197)     SX(198)     SX(219)     C6H7X(233)
                          C6H9X(343)  C5H7X(346)  SX(410)     C6H9X(411)
                          SX(412)     SX(413)     SX(414)     SX(415)
                          SX(416)     SX(520)     C7H9X(535)  SX(547)
                          C7H9X(580)  C3H5X(634)  C4H7X(635)  SX(636)
                          C6H9X(637)  SX(638)     SX(639)     SX(640)
                          SX(641)     SX(765)     SX(766)     C5H7X(777)
                          SX(795)     SX(844)     SX(845)     SX(848)
                          C6H9X(878)  SX(1248)    SX(1249)    SX(1250)
                          SX(1459)    SX(1540)    SX(1705)    SX(1706)
                          SX(1997)    SX(1999)    SX(2032)    SX(2353)
                          SX(2655)    SX(2656)    SX(2657)    SX(2956)
                          SX(2986)    SX(2988)    SX(3416)    SX(3471)
                          SX(3704)    SX(3705)    SX(3913)    SX(3968)
                          SX(4025)    SX(4049)    SX(4089)    SX(4090)
                          SX(4671)    SX(4860)    SX(5103)    SX(5105)
                          SX(5106)    SX(5107)    SX(5108)    SX(5243)
                          SX(5301)    SX(6174)""",
                site_density=2.72e-09,
                phases="gas",
          reactions='surface1-*',
                initial_state=state(temperature=300.0, pressure=OneAtm))

#-------------------------------------------------------------------------------
# Element data
#-------------------------------------------------------------------------------

element(symbol=u'X', atomic_mass=195.083)
element(symbol=u'Ci', atomic_mass=13.003)
element(symbol=u'D', atomic_mass=2.014)
element(symbol=u'Oi', atomic_mass=18.0)
element(symbol=u'T', atomic_mass=3.016)
#-------------------------------------------------------------------------------
# Species data
#-------------------------------------------------------------------------------

species(name=u'n-heptane',
        atoms='H:16 C:7',
        thermo=(NASA([100.00, 1262.75],
                     [-2.93512125E-03,  7.69375610E-02, -3.48031525E-05,
                       1.86160506E-09,  2.01550529E-12, -2.57829334E+04,
                       3.00312819E+01]),
                NASA([1262.75, 5000.00],
                     [ 1.38379971E+01,  4.85941816E-02, -1.95472819E-05,
                       3.52833289E-09, -2.39061569E-13, -3.05142526E+04,
                      -4.48654615E+01])))

species(name=u'Ar',
        atoms='Ar:1',
        thermo=(NASA([200.00, 1000.00],
                     [ 2.50000000E+00,  0.00000000E+00,  0.00000000E+00,
                       0.00000000E+00,  0.00000000E+00, -7.45375000E+02,
                       4.37967000E+00]),
                NASA([1000.00, 6000.00],
                     [ 2.50000000E+00,  0.00000000E+00,  0.00000000E+00,
                       0.00000000E+00,  0.00000000E+00, -7.45375000E+02,
                       4.37967000E+00])))

species(name=u'He',
        atoms='He:1',
        thermo=(NASA([200.00, 1000.00],
                     [ 2.50000000E+00,  0.00000000E+00,  0.00000000E+00,
                       0.00000000E+00,  0.00000000E+00, -7.45375000E+02,
                       9.28724000E-01]),
                NASA([1000.00, 6000.00],
                     [ 2.50000000E+00,  0.00000000E+00,  0.00000000E+00,
                       0.00000000E+00,  0.00000000E+00, -7.45375000E+02,
                       9.28724000E-01])))

species(name=u'Ne',
        atoms='Ne:1',
        thermo=(NASA([200.00, 1000.00],
                     [ 2.50000000E+00,  0.00000000E+00,  0.00000000E+00,
                       0.00000000E+00,  0.00000000E+00, -7.45375000E+02,
                       3.35532000E+00]),
                NASA([1000.00, 6000.00],
                     [ 2.50000000E+00,  0.00000000E+00,  0.00000000E+00,
                       0.00000000E+00,  0.00000000E+00, -7.45375000E+02,
                       3.35532000E+00])))

species(name=u'N2',
        atoms='N:2',
        thermo=(NASA([200.00, 1000.00],
                     [ 3.53101000E+00, -1.23661000E-04, -5.02999000E-07,
                       2.43531000E-09, -1.40881000E-12, -1.04698000E+03,
                       2.96747000E+00]),
                NASA([1000.00, 6000.00],
                     [ 2.95258000E+00,  1.39690000E-03, -4.92632000E-07,
                       7.86010000E-11, -4.60755000E-15, -9.23949000E+02,
                       5.87189000E+00])))

species(name=u'C2H4(2)',
        atoms='H:4 C:2',
        thermo=(NASA([100.00, 979.37],
                     [ 3.97469045E+00, -4.75813325E-03,  4.16772624E-05,
                      -4.51377676E-08,  1.54218287E-11,  4.91540855E+03,
                       3.62439976E+00]),
                NASA([979.37, 5000.00],
                     [ 3.55670229E+00,  1.10625819E-02, -4.17009559E-06,
                       7.85564219E-10, -5.70042086E-14,  4.32042473E+03,
                       2.17665377E+00])))

species(name=u'C4H8-1(3)',
        atoms='H:8 C:4',
        thermo=(NASA([100.00, 1007.28],
                     [ 2.58772978E+00,  2.32777883E-02,  1.93412653E-05,
                      -3.55496729E-08,  1.36906178E-11, -1.91872929E+03,
                       1.45750592E+01]),
                NASA([1007.28, 5000.00],
                     [ 7.20516863E+00,  2.36361619E-02, -9.03150325E-06,
                       1.65392736E-09, -1.16019318E-13, -3.79733809E+03,
                      -1.24426086E+01])))

species(name=u'C4H8-2(4)',
        atoms='H:8 C:4',
        thermo=(NASA([100.00, 1157.78],
                     [ 2.51999305E+00,  2.76811707E-02,  9.44135366E-07,
                      -1.25013222E-08,  4.67160311E-12, -3.34374810E+03,
                       1.30195268E+01]),
                NASA([1157.78, 5000.00],
                     [ 6.04218222E+00,  2.60073554E-02, -1.04844041E-05,
                       1.90882450E-09, -1.30601743E-13, -4.86273126E+03,
                      -7.52672501E+00])))

species(name=u'C4H6(7)',
        atoms='H:6 C:4',
        thermo=(NASA([100.00, 946.05],
                     [ 2.80594317E+00,  1.02590609E-02,  6.17237648E-05,
                      -9.01611778E-08,  3.59103084E-11,  1.16584993E+04,
                       1.20623208E+01]),
                NASA([946.05, 5000.00],
                     [ 1.24695345E+01,  1.00551088E-02, -2.41190446E-06,
                       4.57038145E-10, -3.93127871E-14,  8.01071120E+03,
                      -4.36383840E+01])))

species(name=u'C6H8(9)',
        atoms='H:8 C:6',
        thermo=(NASA([100.00, 941.22],
                     [ 1.38427839E+00,  4.14411676E-02,  1.94286778E-05,
                      -6.16687823E-08,  2.86503237E-11,  1.76317462E+04,
                       1.93257559E+01]),
                NASA([941.22, 5000.00],
                     [ 1.69619725E+01,  1.57221629E-02, -4.10117912E-06,
                       6.95735258E-10, -5.26520576E-14,  1.29061653E+04,
                      -6.44097805E+01])))

species(name=u'C3H6(32)',
        atoms='H:6 C:3',
        thermo=(NASA([100.00, 983.75],
                     [ 3.31912202E+00,  8.17957465E-03,  3.34736557E-05,
                      -4.36194260E-08,  1.58213614E-11,  7.49325285E+02,
                       9.54024700E+00]),
                NASA([983.75, 5000.00],
                     [ 5.36754789E+00,  1.70743084E-02, -6.35108004E-06,
                       1.16619619E-09, -8.27621023E-14, -4.87136723E+02,
                      -4.54465373E+00])))

species(name=u'H2(68)',
        atoms='H:2',
        thermo=(NASA([100.00, 1959.08],
                     [ 3.43536411E+00,  2.12710383E-04, -2.78625110E-07,
                       3.40267219E-10, -7.76032129E-14, -1.03135984E+03,
                      -3.90841731E+00]),
                NASA([1959.08, 5000.00],
                     [ 2.78816619E+00,  5.87640475E-04,  1.59010635E-07,
                      -5.52739465E-11,  4.34311304E-15, -5.96144481E+02,
                       1.12730527E-01])))

species(name=u'S(181)',
        atoms='H:16 C:12',
        thermo=(NASA([100.00, 985.43],
                     [-1.88309559E+00,  1.07042782E-01, -2.70575175E-05,
                      -4.30521591E-08,  2.47769762E-11,  4.00783515E+04,
                       4.74622652E+01]),
                NASA([985.43, 5000.00],
                     [ 2.44924173E+01,  5.06802141E-02, -1.84364732E-05,
                       3.32429337E-09, -2.33628170E-13,  3.24184482E+04,
                      -9.18874447E+01])))

species(name=u'C6H10(352)',
        atoms='H:10 C:6',
        thermo=(NASA([100.00, 1020.64],
                     [ 9.97407792E-01,  5.59779371E-02, -2.05888747E-05,
                      -1.17171796E-08,  8.13407747E-12,  6.30749940E+03,
                       2.38942539E+01]),
                NASA([1020.64, 5000.00],
                     [ 1.33829093E+01,  2.83659778E-02, -1.07662265E-05,
                       1.95747034E-09, -1.36587777E-13,  2.68923113E+03,
                      -4.14516757E+01])))

species(name=u'C8H12(353)',
        atoms='H:12 C:8',
        thermo=(NASA([100.00, 1002.94],
                     [ 1.69470520E-02,  7.28189610E-02, -2.16586522E-05,
                      -2.40806705E-08,  1.44596580E-11,  1.38562448E+04,
                       3.07679147E+01]),
                NASA([1002.94, 5000.00],
                     [ 1.77276964E+01,  3.45993664E-02, -1.29781749E-05,
                       2.37499951E-09, -1.67643382E-13,  8.67334297E+03,
                      -6.28559833E+01])))

species(name=u'C8H12(586)',
        atoms='H:12 C:8',
        thermo=(NASA([100.00, 1016.52],
                     [-1.10429262E-01,  7.70814643E-02, -3.47833133E-05,
                      -1.00302879E-08,  9.42640259E-12,  1.21750142E+04,
                       2.97645888E+01]),
                NASA([1016.52, 5000.00],
                     [ 1.75623557E+01,  3.50022758E-02, -1.32158187E-05,
                       2.40320185E-09, -1.68059078E-13,  7.16317810E+03,
                      -6.27651250E+01])))

species(name=u'S(759)',
        atoms='H:14 C:10',
        thermo=(NASA([100.00, 988.70],
                     [-1.28102806E+00,  9.73401841E-02, -3.96908232E-05,
                      -2.28884425E-08,  1.70599444E-11,  2.01333918E+04,
                       3.80613708E+01]),
                NASA([988.70, 5000.00],
                     [ 2.35618038E+01,  3.86218886E-02, -1.40063844E-05,
                       2.54246881E-09, -1.80004120E-13,  1.31784898E+04,
                      -9.18377394E+01])))

species(name=u'C5H8c(782)',
        atoms='H:8 C:5',
        thermo=(NASA([100.00, 1004.86],
                     [ 1.98272725E+00,  3.49999801E-02,  6.98463280E-06,
                      -3.05024545E-08,  1.32243753E-11,  6.96521087E+03,
                       1.60818631E+01]),
                NASA([1004.86, 5000.00],
                     [ 1.01246935E+01,  2.42323006E-02, -9.24881959E-06,
                       1.70114768E-09, -1.20058754E-13,  4.23622146E+03,
                      -2.86748669E+01])))

species(name=u'C6H10(892)',
        atoms='H:10 C:6',
        thermo=(NASA([100.00, 1036.90],
                     [ 1.50872656E+00,  4.27941517E-02,  1.00401397E-05,
                      -3.76636824E-08,  1.56316704E-11,  7.74480663E+03,
                       2.33494466E+01]),
                NASA([1036.90, 5000.00],
                     [ 1.16601787E+01,  3.10396564E-02, -1.26023661E-05,
                       2.38493738E-09, -1.70149349E-13,  4.16630149E+03,
                      -3.30976488E+01])))

species(name=u'C8H12(894)',
        atoms='H:12 C:8',
        thermo=(NASA([100.00, 1005.34],
                     [ 1.86690834E-01,  6.87130466E-02, -1.27841021E-05,
                      -3.12859178E-08,  1.65061399E-11,  1.40386717E+04,
                       3.13642208E+01]),
                NASA([1005.34, 5000.00],
                     [ 1.70020987E+01,  3.54849525E-02, -1.34527994E-05,
                       2.47698781E-09, -1.75377178E-13,  8.95578691E+03,
                      -5.83139818E+01])))

species(name=u'S(923)',
        atoms='H:18 C:12',
        thermo=(NASA([100.00, 1095.01],
                     [-2.74661373E+00,  1.29765205E-01, -8.38473393E-05,
                       1.76915111E-08,  2.07979233E-12,  1.63622176E+04,
                       4.84763682E+01]),
                NASA([1095.01, 5000.00],
                     [ 2.54001420E+01,  5.57452573E-02, -2.19003737E-05,
                       3.99437471E-09, -2.76437095E-13,  8.47149182E+03,
                      -9.77537738E+01])))

species(name=u'S(1018)',
        atoms='H:10 C:6',
        thermo=(NASA([100.00, 1020.64],
                     [ 9.97407792E-01,  5.59779371E-02, -2.05888747E-05,
                      -1.17171796E-08,  8.13407747E-12,  6.30749940E+03,
                       2.38942539E+01]),
                NASA([1020.64, 5000.00],
                     [ 1.33829093E+01,  2.83659778E-02, -1.07662265E-05,
                       1.95747034E-09, -1.36587777E-13,  2.68923113E+03,
                      -4.14516757E+01])))

species(name=u'S(1019)',
        atoms='H:10 C:6',
        thermo=(NASA([100.00, 1020.64],
                     [ 9.97407792E-01,  5.59779371E-02, -2.05888747E-05,
                      -1.17171796E-08,  8.13407747E-12,  2.84334004E+03,
                       1.95660676E+01]),
                NASA([1020.64, 5000.00],
                     [ 1.33829093E+01,  2.83659778E-02, -1.07662265E-05,
                       1.95747034E-09, -1.36587777E-13, -7.74928230E+02,
                      -4.57798620E+01])))

species(name=u'CH4(1413)',
        atoms='H:4 C:1',
        thermo=(NASA([100.00, 1084.15],
                     [ 4.20540072E+00, -5.35540640E-03,  2.51117636E-05,
                      -2.13755910E-08,  5.97496145E-12, -1.01619427E+04,
                      -9.21226951E-01]),
                NASA([1084.15, 5000.00],
                     [ 9.08349401E-01,  1.14539479E-02, -4.57166053E-06,
                       8.29173612E-10, -5.66300105E-14, -9.72001110E+03,
                       1.39926204E+01])))

species(name=u'S(1436)',
        atoms='H:14 C:9',
        thermo=(NASA([100.00, 1063.15],
                     [-8.82236512E-01,  9.34312176E-02, -5.41013401E-05,
                       5.02932990E-09,  4.39044676E-12,  9.36642699E+03,
                       3.45985246E+01]),
                NASA([1063.15, 5000.00],
                     [ 1.91979022E+01,  4.22928998E-02, -1.63922887E-05,
                       2.98082499E-09, -2.06555325E-13,  3.71720510E+03,
                      -6.99943657E+01])))

species(name=u'C4H8(1443)',
        atoms='H:8 C:4',
        thermo=(NASA([100.00, 1061.32],
                     [ 2.52506524E+00,  2.64750742E-02,  7.08428866E-06,
                      -2.07740178E-08,  8.00465619E-12, -4.02607206E+03,
                       1.28856643E+01]),
                NASA([1061.32, 5000.00],
                     [ 6.48663440E+00,  2.49945454E-02, -9.83291861E-06,
                       1.79345326E-09, -1.24009900E-13, -5.62448308E+03,
                      -1.00311177E+01])))

species(name=u'C2H6(1448)',
        atoms='H:6 C:2',
        thermo=(NASA([100.00, 1012.42],
                     [ 3.72239308E+00,  1.65083640E-03,  3.44175601E-05,
                      -3.76858321E-08,  1.24450696E-11, -1.15575902E+04,
                       4.68247939E+00]),
                NASA([1012.42, 5000.00],
                     [ 2.82848184E+00,  1.73040581E-02, -6.73334315E-06,
                       1.23742041E-09, -8.65676548E-14, -1.19978077E+04,
                       5.93812118E+00])))

species(name=u'S(2005)',
        atoms='H:12 C:8',
        thermo=(NASA([100.00, 966.56],
                     [-1.28181569E-01,  7.35572718E-02, -1.44332890E-05,
                      -3.89699431E-08,  2.17300225E-11,  1.04422482E+04,
                       2.89601700E+01]),
                NASA([966.56, 5000.00],
                     [ 2.02785356E+01,  2.99584866E-02, -1.01704744E-05,
                       1.81720882E-09, -1.29537993E-13,  4.58909577E+03,
                      -7.86679011E+01])))

species(name=u'S(2186)',
        atoms='H:12 C:7',
        thermo=(NASA([100.00, 1016.71],
                     [ 3.01248338E-01,  6.93240711E-02, -2.79066320E-05,
                      -1.19410822E-08,  9.27963974E-12, -3.26067672E+02,
                       2.53851929E+01]),
                NASA([1016.71, 5000.00],
                     [ 1.55704081E+01,  3.41922076E-02, -1.28716994E-05,
                       2.32848055E-09, -1.62039998E-13, -4.71999503E+03,
                      -5.48721300E+01])))

species(name=u'S(2198)',
        atoms='H:16 C:10',
        thermo=(NASA([100.00, 1050.23],
                     [-1.54496371E+00,  1.05469159E-01, -5.71180819E-05,
                       2.20903429E-10,  7.09498952E-12,  6.66890885E+03,
                       3.98894162E+01]),
                NASA([1050.23, 5000.00],
                     [ 2.15403343E+01,  4.80178504E-02, -1.85862954E-05,
                       3.38932536E-09, -2.35753050E-13,  1.39335642E+02,
                      -8.06162561E+01])))

species(name=u'S(2296)',
        atoms='H:12 C:8',
        thermo=(NASA([100.00, 1018.55],
                     [ 6.01059233E-02,  7.29655438E-02, -2.58705189E-05,
                      -1.72899736E-08,  1.14982997E-11,  1.23574076E+04,
                       3.03581001E+01]),
                NASA([1018.55, 5000.00],
                     [ 1.68364693E+01,  3.58886226E-02, -1.36909909E-05,
                       2.50533805E-09, -1.75806284E-13,  7.44565466E+03,
                      -5.82216669E+01])))

species(name=u'S(3235)',
        atoms='H:14 C:8',
        thermo=(NASA([100.00, 1506.75],
                     [ 5.49655908E-02,  8.43985607E-02, -5.64633863E-05,
                       1.98661591E-08, -2.94600717E-12, -7.77392970E+02,
                       2.95663422E+01]),
                NASA([1506.75, 5000.00],
                     [ 1.39948712E+01,  4.73920143E-02, -1.96226291E-05,
                       3.56584317E-09, -2.41458736E-13, -4.97818417E+03,
                      -4.34003806E+01])))

species(name=u'X(1)',
        atoms='X:1',
        thermo=(NASA([100.00, 1554.81],
                     [ 7.10134880E-03, -4.25615041E-05,  8.98521156E-08,
                      -7.80182565E-11,  2.32462166E-14, -8.76099414E-01,
                      -3.11209498E-02]),
                NASA([1554.81, 5000.00],
                     [ 1.60301287E-01, -2.52237396E-04,  1.14182282E-07,
                      -1.21473809E-11,  3.85806589E-16, -7.08108147E+01,
                      -9.09535600E-01])))

species(name=u'HX(5)',
        atoms='H:1 X:1',
        thermo=(NASA([100.00, 952.91],
                     [-3.80957846E-01,  5.47219393E-03,  2.60946928E-06,
                      -9.65008412E-09,  4.63967474E-12,  7.31399096E+02,
                       1.01722845E+00]),
                NASA([952.91, 5000.00],
                     [ 2.80337105E+00, -5.41002993E-04,  4.99482316E-07,
                      -7.54902555E-11,  3.06721398E-15, -2.09339490E+02,
                      -1.59435356E+01])))

species(name=u'C2H3X(37)',
        atoms='H:3 C:2 X:1',
        thermo=(NASA([100.00, 928.60],
                     [ 3.83104022E+00, -8.76542826E-03,  6.98017027E-05,
                      -8.68052566E-08,  3.33256145E-11,  3.77613321E+03,
                      -1.81156365E+01]),
                NASA([928.60, 5000.00],
                     [ 8.78015372E+00,  1.92565992E-03,  8.25424482E-07,
                      -1.63654020E-10,  5.70926320E-15,  1.47689519E+03,
                      -4.90566656E+01])))

species(name=u'allylX(38)',
        atoms='H:5 C:3 X:1',
        thermo=(NASA([100.00, 937.35],
                     [ 3.44141096E+00, -3.47613301E-03,  8.25901551E-05,
                      -1.05552399E-07,  4.04425050E-11,  2.34303607E+02,
                      -6.88821738E+00]),
                NASA([937.35, 5000.00],
                     [ 9.98170901E+00,  8.92230554E-03, -1.75420228E-06,
                       3.12232383E-10, -2.84111933E-14, -2.76258699E+03,
                      -4.74639238E+01])))

species(name=u'CH3X(39)',
        atoms='H:3 C:1 X:1',
        thermo=(NASA([100.00, 848.30],
                     [-1.21090611E+00,  2.92390831E-02, -4.49011672E-05,
                       3.86010689E-08, -1.30361474E-11, -3.94437784E+03,
                       6.80940157E+00]),
                NASA([848.30, 5000.00],
                     [ 1.62291116E+00,  1.12987225E-02, -5.08316650E-06,
                       9.46832954E-10, -6.42885005E-14, -4.26044373E+03,
                      -5.42502394E+00])))

species(name=u'C2H5X(40)',
        atoms='H:5 C:2 X:1',
        thermo=(NASA([100.00, 803.89],
                     [-1.64624290E+00,  3.89625197E-02, -4.31124593E-05,
                       2.97071589E-08, -8.80200440E-12, -7.92805340E+03,
                       9.27319544E+00]),
                NASA([803.89, 5000.00],
                     [ 1.97599860E+00,  2.09382411E-02, -9.47914613E-06,
                       1.81392354E-09, -1.27205831E-13, -8.51040717E+03,
                      -7.41117371E+00])))

species(name=u'C4H7X(41)',
        atoms='H:7 C:4 X:1',
        thermo=(NASA([100.00, 971.02],
                     [ 2.64368251E+00,  1.79003685E-02,  4.24457324E-05,
                      -6.44047422E-08,  2.49602315E-11, -3.72241019E+03,
                      -6.70003109E+00]),
                NASA([971.02, 5000.00],
                     [ 9.25860008E+00,  2.04066151E-02, -7.39155270E-06,
                       1.37023983E-09, -9.94156257E-14, -6.40984447E+03,
                      -4.56419548E+01])))

species(name=u'C4H7X(42)',
        atoms='H:7 C:4 X:1',
        thermo=(NASA([100.00, 986.68],
                     [ 2.45797290E+00,  2.47218439E-02,  2.01282012E-05,
                      -4.02730332E-08,  1.62483577E-11,  4.67977862E+03,
                      -5.12988514E+00]),
                NASA([986.68, 5000.00],
                     [ 8.87901611E+00,  2.09043388E-02, -7.83847728E-06,
                       1.44075651E-09, -1.02346191E-13,  2.33140726E+03,
                      -4.15009568E+01])))

species(name=u'C4H7X(43)',
        atoms='H:7 C:4 X:1',
        thermo=(NASA([100.00, 965.04],
                     [ 2.56885679E+00,  1.97490862E-02,  3.72996972E-05,
                      -6.04065123E-08,  2.40010228E-11, -3.99383312E+03,
                      -8.56593019E+00]),
                NASA([965.04, 5000.00],
                     [ 9.89750247E+00,  1.86147853E-02, -6.38912892E-06,
                       1.17316108E-09, -8.55462900E-14, -6.77000282E+03,
                      -5.07166347E+01])))

species(name=u'C4H7X(44)',
        atoms='H:7 C:4 X:1',
        thermo=(NASA([100.00, 949.34],
                     [ 2.54262411E+00,  1.77379351E-02,  4.93913107E-05,
                      -7.72926578E-08,  3.10681685E-11, -2.76819973E+03,
                      -8.46811948E+00]),
                NASA([949.34, 5000.00],
                     [ 1.15217625E+01,  1.60010436E-02, -4.89849803E-06,
                       8.84035360E-10, -6.63762686E-14, -6.09962181E+03,
                      -5.98873444E+01])))

species(name=u'C3H5X(45)',
        atoms='H:5 C:3 X:1',
        thermo=(NASA([100.00, 939.07],
                     [ 3.23681525E+00,  3.73154944E-03,  6.01020526E-05,
                      -8.16234054E-08,  3.18530809E-11, -3.71020688E+01,
                      -1.35294815E+01]),
                NASA([939.07, 5000.00],
                     [ 9.70188975E+00,  9.48299599E-03, -2.25947885E-06,
                       3.98417297E-10, -3.27107153E-14, -2.71915548E+03,
                      -5.21286116E+01])))

species(name=u'C4H7X(46)',
        atoms='H:7 C:4 X:1',
        thermo=(NASA([100.00, 963.12],
                     [ 2.84105734E+00,  1.13891249E-02,  6.15521374E-05,
                      -8.44896112E-08,  3.21387448E-11, -3.96158966E+03,
                      -1.87445310E+00]),
                NASA([963.12, 5000.00],
                     [ 9.41772668E+00,  1.97006233E-02, -6.87728119E-06,
                       1.28330586E-09, -9.49080777E-14, -6.88071896E+03,
                      -4.19338421E+01])))

species(name=u'C4H7X(47)',
        atoms='H:7 C:4 X:1',
        thermo=(NASA([100.00, 984.26],
                     [ 2.62897053E+00,  1.98265819E-02,  3.32359789E-05,
                      -5.27981164E-08,  2.03675811E-11, -5.53047075E+03,
                      -9.11747238E+00]),
                NASA([984.26, 5000.00],
                     [ 8.50209518E+00,  2.14493865E-02, -8.08476653E-06,
                       1.50191195E-09, -1.07734856E-13, -7.92136019E+03,
                      -4.36311929E+01])))

species(name=u'C4H5X(80)',
        atoms='H:5 C:4 X:1',
        thermo=(NASA([100.00, 936.52],
                     [ 2.68471814E+00,  1.36244384E-02,  5.32592262E-05,
                      -8.32913017E-08,  3.41499632E-11,  5.86936889E+03,
                      -1.06510519E+01]),
                NASA([936.52, 5000.00],
                     [ 1.29012238E+01,  8.96922349E-03, -1.71920361E-06,
                       2.89745198E-10, -2.58686934E-14,  2.24633114E+03,
                      -6.83963240E+01])))

species(name=u'C4H5X(81)',
        atoms='H:5 C:4 X:1',
        thermo=(NASA([100.00, 928.62],
                     [ 2.64239936E+00,  8.31017311E-03,  8.12180670E-05,
                      -1.21403473E-07,  4.98652517E-11,  1.10522745E+04,
                      -1.03935602E+01]),
                NASA([928.62, 5000.00],
                     [ 1.69488231E+01,  2.00857887E-03,  2.03445917E-06,
                      -4.02602194E-10,  1.85354193E-14,  6.00987464E+03,
                      -9.11978215E+01])))

species(name=u'C6H9X(97)',
        atoms='H:9 C:6 X:1',
        thermo=(NASA([100.00, 999.56],
                     [ 1.67666865E+00,  3.46237095E-02,  3.95042933E-05,
                      -7.18098006E-08,  2.83883045E-11,  6.27424889E+03,
                       1.40574199E+00]),
                NASA([999.56, 5000.00],
                     [ 1.32937818E+01,  2.82669225E-02, -1.11807632E-05,
                       2.16224377E-09, -1.59009590E-13,  1.94699980E+03,
                      -6.46636369E+01])))

species(name=u'C6H9X(98)',
        atoms='H:9 C:6 X:1',
        thermo=(NASA([100.00, 959.60],
                     [ 9.97331794E-01,  5.45666106E-02, -1.20055408E-05,
                      -2.57207249E-08,  1.47247298E-11,  1.30766369E+04,
                       4.10399517E+00]),
                NASA([959.60, 5000.00],
                     [ 1.47073062E+01,  2.48051643E-02, -8.29412710E-06,
                       1.44241037E-09, -1.00347533E-13,  9.18445930E+03,
                      -6.80435427E+01])))

species(name=u'SX(111)',
        atoms='H:11 C:8 X:1',
        thermo=(NASA([100.00, 972.95],
                     [ 2.21489032E-01,  6.31111443E-02,  1.32724260E-05,
                      -6.52466858E-08,  3.01549237E-11,  1.25028883E+04,
                       1.01868224E+01]),
                NASA([972.95, 5000.00],
                     [ 1.97220994E+01,  3.08925124E-02, -1.09842031E-05,
                       2.02953264E-09, -1.47662864E-13,  6.43859274E+03,
                      -9.50214419E+01])))

species(name=u'SX(112)',
        atoms='H:11 C:8 X:1',
        thermo=(NASA([100.00, 983.02],
                     [-3.67817743E-02,  7.59663529E-02, -3.27274188E-05,
                      -1.32879699E-08,  1.12380469E-11,  1.92455754E+04,
                       1.03948572E+01]),
                NASA([983.02, 5000.00],
                     [ 1.71800186E+01,  3.42412144E-02, -1.22903429E-05,
                       2.17110463E-09, -1.49909899E-13,  1.44918078E+04,
                      -7.93340220E+01])))

species(name=u'C6H7X(132)',
        atoms='H:7 C:6 X:1',
        thermo=(NASA([100.00, 921.06],
                     [ 1.31098703E+00,  3.98938896E-02,  3.32176678E-05,
                      -8.35174769E-08,  3.86291185E-11,  1.08862700E+04,
                      -3.79681512E+00]),
                NASA([921.06, 5000.00],
                     [ 1.94242456E+01,  1.10873203E-02, -1.06260774E-06,
                       6.27632967E-11, -7.94405419E-15,  5.43481288E+03,
                      -1.01173483E+02])))

species(name=u'C6H7X(133)',
        atoms='H:7 C:6 X:1',
        thermo=(NASA([100.00, 937.50],
                     [ 1.68534398E+00,  3.10727560E-02,  5.20804043E-05,
                      -9.63159071E-08,  4.10725706E-11,  7.48645047E+03,