units(length='cm', time='s', quantity='mol', act_energy='kcal/mol')

ideal_gas(name='gas',
          elements="H D T C Ci O Oi N Ne Ar He Si S Cl X",
          species="""N2          Ar          He          Ne
                     CH4(2)      O2(3)       CO2(4)      H2O(5)
                     H2(6)       CO(7)       C2H6(8)     CH2O(9)
                     CH3(10)     C3H8(11)    H(12)       C2H5(13)
                     CH3OH(14)   HCO(15)     CH3CHO(16)  OH(17)
                     C2H4(18)    CH2OH(47)   OCCO(52)    CH3O(53)
                     OCO(57)     HOOH(59)    HOCH2O(66)  OCOCO(68)
                     CH3O2(72)   C2H6O3(75)  OC(O)O(77)  C2H6O4(78)
                     C2H6O4(79)  S(100)      S(105)      CH3O3(109)
                     S(114)      S(118)      CH3O3(137)  S(139)
                     CH4O4(141)  S(142)      S(143)      S(146)
                     S(149)      S(155)      S(166)      S(177)
                     HO2(193)    S(199)      S(203)      S(216)
                     S(233)      CH3O4(245)  S(251)      S(258)
                     S(282)      S(327)      S(343)      S(368)
                     S(384)      S(400)      S(426)      S(442)
                     S(493)      S(579)      S(599)      S(633)
                     S(654)      CH2O4(707)  CH2O3(758)  S(1198)""",
          transport='Mix',
          initial_state=state(temperature=300.0, pressure=OneAtm))

ideal_interface(name='surface1',
                elements="H D T C Ci O Oi N Ne Ar He Si S Cl X",
                species="""X(1)        HX(19)      OX(20)      HOX(23)
                          H2OX(30)    H2X(31)     CH3OX(39)   CH3OX(40)
                          CH3OHX(41)  CH3O2X(50)  HO2X(51)    CH3O2X(60)
                          CH4O2X(61)  SX(64)      SX(65)      CH2O2X(73)
                          CH3O3X(74)  SX(82)      SX(83)      SX(89)
                          SX(90)      SX(91)      SX(92)      CH3O3X(93)
                          CH4O3X(94)  SX(97)      SX(98)      SX(99)
                          SX(101)     SX(102)     SX(103)     SX(138)
                          SX(150)     SX(151)     SX(152)     SX(153)
                          SX(154)     SX(178)     SX(179)     SX(180)
                          HOOHX(192)  SX(196)     SX(197)     SX(198)
                          SX(200)     SX(271)     SX(272)     SX(273)
                          SX(274)     SX(281)     SX(283)     SX(305)
                          SX(306)     SX(325)     SX(326)     SX(342)
                          SX(344)     SX(345)     SX(346)     SX(366)
                          SX(367)     SX(459)     SX(462)     SX(463)
                          SX(464)     SX(513)     SX(514)     SX(541)
                          SX(542)     SX(543)     SX(578)     SX(600)
                          SX(631)     CHOX(802)   SX(1153)    SX(1197)""",
                site_density=2.9e-09,
                phases="gas",
          reactions='all',
                initial_state=state(temperature=300.0, pressure=OneAtm))

#-------------------------------------------------------------------------------
# Element data
#-------------------------------------------------------------------------------

element(symbol=u'Ci', atomic_mass=13.003)
element(symbol=u'D', atomic_mass=2.014)
element(symbol=u'Oi', atomic_mass=18.0)
element(symbol=u'T', atomic_mass=3.016)
element(symbol=u'X', atomic_mass=195.083)
#-------------------------------------------------------------------------------
# Species data
#-------------------------------------------------------------------------------

species(name=u'N2',
        atoms='N:2',
        thermo=(NASA([200.00, 1000.00],
                     [ 3.53101000E+00, -1.23661000E-04, -5.02999000E-07,
                       2.43531000E-09, -1.40881000E-12, -1.04698000E+03,
                       2.96747000E+00]),
                NASA([1000.00, 6000.00],
                     [ 2.95258000E+00,  1.39690000E-03, -4.92632000E-07,
                       7.86010000E-11, -4.60755000E-15, -9.23949000E+02,
                       5.87189000E+00])),
        transport=gas_transport(geom='linear',
                                diam=3.621,
                                well_depth=97.53,
                                polar=1.76,
                                rot_relax=4.0))

species(name=u'Ar',
        atoms='Ar:1',
        thermo=(NASA([200.00, 1000.00],
                     [ 2.50000000E+00,  0.00000000E+00,  0.00000000E+00,
                       0.00000000E+00,  0.00000000E+00, -7.45375000E+02,
                       4.37967000E+00]),
                NASA([1000.00, 6000.00],
                     [ 2.50000000E+00,  0.00000000E+00,  0.00000000E+00,
                       0.00000000E+00,  0.00000000E+00, -7.45375000E+02,
                       4.37967000E+00])),
        transport=gas_transport(geom='atom',
                                diam=3.33,
                                well_depth=136.501))

species(name=u'He',
        atoms='He:1',
        thermo=(NASA([200.00, 1000.00],
                     [ 2.50000000E+00,  0.00000000E+00,  0.00000000E+00,
                       0.00000000E+00,  0.00000000E+00, -7.45375000E+02,
                       9.28724000E-01]),
                NASA([1000.00, 6000.00],
                     [ 2.50000000E+00,  0.00000000E+00,  0.00000000E+00,
                       0.00000000E+00,  0.00000000E+00, -7.45375000E+02,
                       9.28724000E-01])),
        transport=gas_transport(geom='atom',
                                diam=2.576,
                                well_depth=10.2))

species(name=u'Ne',
        atoms='Ne:1',
        thermo=(NASA([200.00, 1000.00],
                     [ 2.50000000E+00,  0.00000000E+00,  0.00000000E+00,
                       0.00000000E+00,  0.00000000E+00, -7.45375000E+02,
                       3.35532000E+00]),
                NASA([1000.00, 6000.00],
                     [ 2.50000000E+00,  0.00000000E+00,  0.00000000E+00,
                       0.00000000E+00,  0.00000000E+00, -7.45375000E+02,
                       3.35532000E+00])),
        transport=gas_transport(geom='atom',
                                diam=3.758,
                                well_depth=148.6))

species(name=u'CH4(2)',
        atoms='C:1 H:4',
        thermo=(NASA([100.00, 1084.12],
                     [ 4.20541524E+00, -5.35557362E-03,  2.51123265E-05,
                      -2.13762843E-08,  5.97523937E-12, -1.01619433E+04,
                      -9.21279283E-01]),
                NASA([1084.12, 5000.00],
                     [ 9.08265721E-01,  1.14540858E-02, -4.57173828E-06,
                       8.29191671E-10, -5.66314895E-14, -9.71997444E+03,
                       1.39930944E+01])),
        transport=gas_transport(geom='nonlinear',
                                diam=3.746,
                                well_depth=141.4,
                                polar=2.6,
                                rot_relax=13.0))

species(name=u'O2(3)',
        atoms='O:2',
        thermo=(NASA([100.00, 1074.56],
                     [ 3.53732181E+00, -1.21570930E-03,  5.31617826E-06,
                      -4.89443424E-09,  1.45845042E-12, -1.03858846E+03,
                       4.68368406E+00]),
                NASA([1074.56, 5000.00],
                     [ 3.15382425E+00,  1.67803802E-03, -7.69971022E-07,
                       1.51274714E-10, -1.08781801E-14, -1.04081878E+03,
                       6.16753884E+00])),
        transport=gas_transport(geom='linear',
                                diam=3.467,
                                well_depth=106.7))

species(name=u'CO2(4)',
        atoms='C:1 O:2',
        thermo=(NASA([100.00, 978.21],
                     [ 3.28084634E+00,  2.50183460E-03,  8.08199998E-06,
                      -1.20511416E-08,  4.66547255E-12, -4.84008304E+04,
                       6.00080795E+00]),
                NASA([978.21, 5000.00],
                     [ 4.67426743E+00,  2.60964031E-03, -9.85689857E-07,
                       1.95713857E-10, -1.49836245E-14, -4.89512140E+04,
                      -2.11073617E+00])),
        transport=gas_transport(geom='linear',
                                diam=3.941,
                                well_depth=195.201))

species(name=u'H2O(5)',
        atoms='H:2 O:1',
        thermo=(NASA([100.00, 1130.24],
                     [ 4.05763610E+00, -7.87938871E-04,  2.90878480E-06,
                      -1.47520039E-09,  2.12847506E-13, -3.02815866E+04,
                      -3.11365027E-01]),
                NASA([1130.24, 5000.00],
                     [ 2.84324866E+00,  2.75108838E-03, -7.81033120E-07,
                       1.07244016E-10, -5.79395308E-15, -2.99586120E+04,
                       5.91043011E+00])),
        transport=gas_transport(geom='nonlinear',
                                diam=2.641,
                                well_depth=809.102,
                                polar=1.76,
                                rot_relax=4.0))

species(name=u'H2(6)',
        atoms='H:2',
        thermo=(NASA([100.00, 1959.08],
                     [ 3.43536412E+00,  2.12710353E-04, -2.78625043E-07,
                       3.40267167E-10, -7.76031998E-14, -1.03135984E+03,
                      -3.90841732E+00]),
                NASA([1959.08, 5000.00],
                     [ 2.78816583E+00,  5.87640942E-04,  1.59010417E-07,
                      -5.52739026E-11,  4.34310984E-15, -5.96144270E+02,
                       1.12732655E-01])),
        transport=gas_transport(geom='linear',
                                diam=2.833,
                                well_depth=59.7))

species(name=u'CO(7)',
        atoms='C:1 O:1',
        thermo=(NASA([100.00, 1571.63],
                     [ 3.56838038E+00, -8.52129500E-04,  2.48918819E-06,
                      -1.56331996E-09,  3.13598127E-13, -1.42842550E+04,
                       3.57912028E+00]),
                NASA([1571.63, 5000.00],
                     [ 2.91305202E+00,  1.64659937E-03, -6.88625686E-07,
                       1.21039677E-10, -7.84035796E-15, -1.41808768E+04,
                       6.71054299E+00])),
        transport=gas_transport(geom='linear',
                                diam=3.69,
                                well_depth=91.7,
                                polar=1.76,
                                rot_relax=4.0))

species(name=u'C2H6(8)',
        atoms='C:2 H:6',
        thermo=(NASA([100.00, 1012.42],
                     [ 3.72239291E+00,  1.65083841E-03,  3.44175530E-05,
                      -3.76858229E-08,  1.24450657E-11, -1.15575901E+04,
                       4.68247999E+00]),
                NASA([1012.42, 5000.00],
                     [ 2.82848257E+00,  1.73040568E-02, -6.73334245E-06,
                       1.23742024E-09, -8.65676410E-14, -1.19978080E+04,
                       5.93811707E+00])),
        transport=gas_transport(geom='nonlinear',
                                diam=4.302,
                                well_depth=252.301,
                                rot_relax=1.5))

species(name=u'CH2O(9)',
        atoms='C:1 H:2 O:1',
        thermo=(NASA([100.00, 1070.44],
                     [ 4.12927802E+00, -4.08401318E-03,  2.03229341E-05,
                      -1.83524244E-08,  5.37975522E-12, -1.44294640E+04,
                       3.22418463E+00]),
                NASA([1070.44, 5000.00],
                     [ 2.21172442E+00,  7.94265679E-03, -3.34193053E-06,
                       6.28471401E-10, -4.40431446E-14, -1.42974456E+04,
                       1.13048985E+01])),
        transport=gas_transport(geom='nonlinear',
                                diam=3.59,
                                well_depth=498.002,
                                rot_relax=2.0))

species(name=u'CH3(10)',
        atoms='C:1 H:3',
        thermo=(NASA([100.00, 697.71],
                     [ 3.96043098E+00,  5.92939934E-04,  8.78575390E-06,
                      -9.88030557E-09,  3.63234580E-12,  1.64218818E+04,
                       3.39865631E-01]),
                NASA([697.71, 5000.00],
                     [ 3.09511187E+00,  5.55429874E-03, -1.88158855E-06,
                       3.13335012E-10, -2.05195181E-14,  1.65426192E+04,
                       4.20297876E+00])),
        transport=gas_transport(geom='nonlinear',
                                diam=3.8,
                                well_depth=144.001))

species(name=u'C3H8(11)',
        atoms='C:3 H:8',
        thermo=(NASA([100.00, 989.99],
                     [ 3.06336167E+00,  1.29214561E-02,  3.47032808E-05,
                      -4.70946154E-08,  1.71384141E-11, -1.43905789E+04,
                       1.07835592E+01]),
                NASA([989.99, 5000.00],
                     [ 5.60440043E+00,  2.19528785E-02, -8.22080610E-06,
                       1.50103993E-09, -1.05635358E-13, -1.58394038E+04,
                      -6.22623300E+00])),
        transport=gas_transport(geom='nonlinear',
                                diam=4.982,
                                well_depth=266.801,
                                rot_relax=1.0))

species(name=u'H(12)',
        atoms='H:1',
        thermo=(NASA([100.00, 3459.60],
                     [ 2.50000000E+00,  9.24384602E-15, -1.36779837E-17,
                       6.66184769E-21, -1.00106912E-24,  2.54742178E+04,
                      -4.44972896E-01]),
                NASA([3459.60, 5000.00],
                     [ 2.49999999E+00,  9.20455546E-12, -3.58608293E-15,
                       6.15198922E-19, -3.92041801E-23,  2.54742178E+04,
                      -4.44972842E-01])),
        transport=gas_transport(geom='atom',
                                diam=2.05,
                                well_depth=145.0))

species(name=u'C2H5(13)',
        atoms='C:2 H:5',
        thermo=(NASA([100.00, 1006.87],
                     [ 3.68746539E+00,  3.06889693E-03,  2.55873112E-05,
                      -2.94076576E-08,  9.94076215E-12,  1.31153648E+04,
                       6.96684864E+00]),
                NASA([1006.87, 5000.00],
                     [ 3.53781010E+00,  1.37311636E-02, -5.29564638E-06,
                       9.71482858E-10, -6.80289490E-14,  1.26351790E+04,
                       5.15566048E+00])),
        transport=gas_transport(geom='nonlinear',
                                diam=4.302,
                                well_depth=252.301,
                                rot_relax=1.5))

species(name=u'CH3OH(14)',
        atoms='C:1 H:4 O:1',
        thermo=(NASA([100.00, 1035.75],
                     [ 3.84006214E+00,  1.38241998E-03,  1.91667191E-05,
                      -2.01568660E-08,  6.39102259E-12, -2.56083087E+04,
                       5.90978137E+00]),
                NASA([1035.75, 5000.00],
                     [ 2.79184298E+00,  1.15827852E-02, -4.51551928E-06,
                       8.21206706E-10, -5.67063250E-14, -2.57211674E+04,
                       9.41061586E+00])),
        transport=gas_transport(geom='nonlinear',
                                diam=3.626,
                                well_depth=481.802,
                                rot_relax=1.0))

species(name=u'HCO(15)',
        atoms='C:1 H:1 O:1',
        thermo=(NASA([100.00, 1112.10],
                     [ 4.05936407E+00, -1.73846452E-03,  9.14981041E-06,
                      -8.01131526E-09,  2.25737264E-12,  3.84377617E+03,
                       3.32449702E+00]),
                NASA([1112.10, 5000.00],
                     [ 3.05136186E+00,  4.11706437E-03, -1.75586433E-06,
                       3.29302821E-10, -2.29174030E-14,  3.93007923E+03,
                       7.67464289E+00])),
        transport=gas_transport(geom='nonlinear',
                                diam=3.59,
                                well_depth=498.002))

species(name=u'CH3CHO(16)',
        atoms='C:2 H:4 O:1',
        thermo=(NASA([100.00, 1028.81],
                     [ 3.57991319E+00,  5.18996203E-03,  2.26893060E-05,
                      -2.73736957E-08,  9.28455869E-12, -2.13697369E+04,
                       8.96975431E+00]),
                NASA([1028.81, 5000.00],
                     [ 4.08568882E+00,  1.39060358E-02, -5.59365394E-06,
                       1.04608143E-09, -7.38729265E-14, -2.20391558E+04,
                       3.76773341E+00])),
        transport=gas_transport(geom='nonlinear',
                                diam=3.97,
                                well_depth=436.001,
                                rot_relax=2.0))

species(name=u'OH(17)',
        atoms='H:1 O:1',
        thermo=(NASA([100.00, 1145.75],
                     [ 3.51456768E+00,  2.92814373E-05, -5.32176582E-07,
                       1.01950588E-09, -3.85951152E-13,  3.41425421E+03,
                       2.10435015E+00]),
                NASA([1145.75, 5000.00],
                     [ 3.07194246E+00,  6.04011411E-04, -1.39759127E-08,
                      -2.13451563E-11,  2.48070095E-15,  3.57938557E+03,
                       4.57798500E+00])),
        transport=gas_transport(geom='linear',
                                diam=2.75,
                                well_depth=80.0))

species(name=u'C2H4(18)',
        atoms='C:2 H:4',
        thermo=(NASA([100.00, 979.36],
                     [ 3.97471606E+00, -4.75844285E-03,  4.16783770E-05,
                      -4.51392516E-08,  1.54224761E-11,  4.91540746E+03,
                       3.62430844E+00]),
                NASA([979.36, 5000.00],
                     [ 3.55660610E+00,  1.10627464E-02, -4.17019079E-06,
                       7.85586770E-10, -5.70060829E-14,  4.32046489E+03,
                       2.17719479E+00])),
        transport=gas_transport(geom='nonlinear',
                                diam=3.971,
                                well_depth=280.801,
                                rot_relax=1.5))

species(name=u'CH2OH(47)',
        atoms='C:1 H:3 O:1',
        thermo=(NASA([100.00, 1015.48],
                     [ 3.61905444E+00,  6.28695698E-03,  5.57453382E-06,
                      -9.77872604E-09,  3.69458574E-12, -3.32162396E+03,
                       6.61713040E+00]),
                NASA([1015.48, 5000.00],
                     [ 4.77201169E+00,  6.78473588E-03, -2.60442931E-06,
                       4.77565512E-10, -3.34609211E-14, -3.81561325E+03,
                      -2.42265753E-01])),
        transport=gas_transport(geom='nonlinear',
                                diam=3.69,
                                well_depth=417.002,
                                dipole=1.7,
                                rot_relax=2.0))

species(name=u'OCCO(52)',
        atoms='C:2 H:6 O:2',
        thermo=(NASA([100.00, 1023.84],
                     [ 2.45006155E+00,  3.47926537E-02, -3.03303076E-05,
                       1.60435197E-08, -3.66599881E-12, -5.00259550E+04,
                       1.53943704E+01]),
                NASA([1023.84, 5000.00],
                     [ 6.37169814E+00,  1.94715478E-02, -7.88403928E-06,
                       1.42795275E-09, -9.72296828E-14, -5.08289901E+04,
                      -3.61770032E+00])),
        transport=gas_transport(geom='nonlinear',
                                diam=6.214,
                                well_depth=453.933))

species(name=u'CH3O(53)',
        atoms='C:1 H:3 O:1',
        thermo=(NASA([100.00, 985.45],
                     [ 3.95613787E+00, -3.06320855E-03,  3.06887593E-05,
                      -3.34128285E-08,  1.13930971E-11,  1.19253580E+03,
                       4.69432285E+00]),
                NASA([985.45, 5000.00],
                     [ 3.74488672E+00,  8.52633291E-03, -3.28794143E-06,
                       6.23972749E-10, -4.53282945E-14,  7.13067763E+02,
                       3.06640880E+00])),
        transport=gas_transport(geom='nonlinear',
                                diam=3.69,
                                well_depth=417.002,
                                dipole=1.7,
                                rot_relax=2.0))

species(name=u'OCO(57)',
        atoms='C:1 H:4 O:2',
        thermo=(NASA([100.00, 894.11],
                     [ 2.88372686E+00,  7.57639546E-03,  5.50733244E-05,
                      -9.34426386E-08,  4.16292241E-11, -4.93732271E+04,
                       1.12137611E+01]),
                NASA([894.11, 5000.00],
                     [ 1.68608749E+01, -9.64376863E-03,  7.94900025E-06,
                      -1.62844270E-09,  1.09854710E-13, -5.36837522E+04,
                      -6.47814539E+01])),
        transport=gas_transport(geom='nonlinear',
                                diam=5.898,
                                well_depth=436.691))

species(name=u'HOOH(59)',
        atoms='H:2 O:2',
        thermo=(NASA([100.00, 1005.78],
                     [ 3.81666060E+00,  2.71177103E-03,  6.17757060E-06,
                      -8.24839330E-09,  2.92664300E-12, -1.76922539E+04,
                       5.38575095E+00]),
                NASA([1005.78, 5000.00],
                     [ 4.14711917E+00,  4.72694898E-03, -1.79320499E-06,
                       3.26120398E-10, -2.27309864E-14, -1.79271299E+04,
                       2.95240617E+00])),
        transport=gas_transport(geom='nonlinear',
                                diam=4.196,
                                well_depth=289.3))

species(name=u'HOCH2O(66)',
        atoms='C:1 H:3 O:2',
        thermo=(NASA([100.00, 944.18],
                     [ 3.38980222E+00,  5.88265247E-03,  2.76836199E-05,
                      -4.16177074E-08,  1.67440014E-11, -2.18494295E+04,
                       1.04838843E+01]),
                NASA([944.18, 5000.00],
                     [ 8.14600061E+00,  4.87902791E-03, -1.13893877E-06,
                       2.10345174E-10, -1.79653167E-14, -2.36009698E+04,
                      -1.67081134E+01])),
        transport=gas_transport(geom='nonlinear',
                                diam=4.41,
                                well_depth=470.6,
                                rot_relax=1.5))

species(name=u'OCOCO(68)',
        atoms='C:2 H:6 O:3',
        thermo=(NASA([100.00, 899.97],
                     [ 1.29825447E+00,  3.07098085E-02,  6.20403688E-05,
                      -1.33819098E-07,  6.29679824E-11, -6.98970253E+04,
                       2.01527167E+01]),
                NASA([899.97, 5000.00],
                     [ 2.92352801E+01, -1.66453823E-02,  1.29404293E-05,
                      -2.60810307E-09,  1.73868887E-13, -7.80362349E+04,
                      -1.28965280E+02])),
        transport=gas_transport(geom='nonlinear',
                                diam=6.41,
                                well_depth=471.357))

species(name=u'CH3O2(72)',
        atoms='C:1 H:3 O:2',
        thermo=(NASA([100.00, 1261.91],
                     [ 2.70939750E+00,  2.54992890E-02, -3.14580952E-05,
                       1.89353308E-08, -4.23675999E-12, -2.66538217E+04,
                       1.16233064E+01]),
                NASA([1261.91, 5000.00],
                     [ 8.67769452E+00,  2.77367681E-03,  8.08868819E-08,
                      -1.17578637E-10,  1.15164149E-14, -2.78569689E+04,
                      -1.73575345E+01])),
        transport=gas_transport(geom='nonlinear',
                                diam=5.898,
                                well_depth=436.691))

species(name=u'C2H6O3(75)',
        atoms='C:2 H:6 O:3',
        thermo=(NASA([100.00, 951.97],
                     [ 1.85100511E+00,  4.87910421E-02, -5.40140121E-05,
                       3.34714110E-08, -8.48599947E-12, -7.40873052E+04,
                       2.07066627E+01]),
                NASA([951.97, 5000.00],
                     [ 8.73100344E+00,  1.98822549E-02, -8.46251246E-06,
                       1.57124318E-09, -1.08497782E-13, -7.53972011E+04,
                      -1.21466304E+01])),
        transport=gas_transport(geom='nonlinear',
                                diam=6.938,
                                well_depth=524.008))

species(name=u'OC(O)O(77)',
        atoms='C:1 H:4 O:3',
        thermo=(NASA([100.00, 844.27],
                     [ 2.69687443E+00,  3.43592570E-02, -5.88062345E-05,
                       5.90160504E-08, -2.25209525E-11, -7.22065646E+04,
                       1.45765971E+01]),
                NASA([844.27, 5000.00],
                     [ 2.93921878E+00,  2.00243065E-02, -9.90874893E-06,
                       1.90443525E-09, -1.31173785E-13, -7.17775170E+04,
                       1.62317410E+01])),
        transport=gas_transport(geom='nonlinear',
                                diam=6.621,
                                well_depth=506.876))

species(name=u'C2H6O4(78)',
        atoms='C:2 H:6 O:4',
        thermo=(NASA([100.00, 1019.91],
                     [ 1.02067282E+00,  5.85393297E-02, -5.53132302E-05,
                       2.27008696E-08, -2.63048524E-12, -9.27264803E+04,
                       2.49404376E+01]),
                NASA([1019.91, 5000.00],
                     [ 1.59123956E+01,  1.20045466E-02, -4.33007530E-06,
                       7.86029752E-10, -5.56495138E-14, -9.63814542E+04,
                      -5.02234964E+01])),
        transport=gas_transport(geom='nonlinear',
                                diam=7.133,
                                well_depth=541.399))

species(name=u'C2H6O4(79)',
        atoms='C:2 H:6 O:4',
        thermo=(NASA([100.00, 927.52],
                     [ 1.24806423E+00,  6.28448148E-02, -7.79318273E-05,
                       5.12511388E-08, -1.34734594E-11, -9.81485068E+04,
                       2.46459077E+01]),
                NASA([927.52, 5000.00],
                     [ 1.11323945E+01,  2.02184701E-02, -8.99675983E-06,
                       1.70386098E-09, -1.18866289E-13, -9.99821144E+04,
                      -2.22966995E+01])),
        transport=gas_transport(geom='nonlinear',
                                diam=7.663,
                                well_depth=595.166))

species(name=u'S(100)',
        atoms='C:2 H:5 O:3',
        thermo=(NASA([100.00, 1698.25],
                     [-1.14638712E-02,  6.16619979E-02, -6.86215446E-05,
                       3.41623433E-08, -6.06558056E-12, -4.71272521E+04,
                       2.53557649E+01]),
                NASA([1698.25, 5000.00],
                     [ 1.88258304E+01, -1.63701543E-03,  4.00840483E-06,
                      -9.13052332E-10,  6.41225476E-14, -5.07955261E+04,
                      -6.74623758E+01])),
        transport=gas_transport(geom='nonlinear',
                                diam=6.41,
                                well_depth=471.357))

species(name=u'S(105)',
        atoms='C:3 H:8 O:5',
        thermo=(NASA([100.00, 934.96],
                     [-5.23506180E-01,  8.12044058E-02, -4.68263819E-05,
                      -1.94115695E-08,  1.93156317E-11, -1.13252058E+05,
                       3.37303390E+01]),
                NASA([934.96, 5000.00],
                     [ 2.79874900E+01,  5.50538838E-03,  3.74250979E-07,
                      -1.26267869E-10,  2.80573963E-15, -1.20606092E+05,
                      -1.12718416E+02])),
        transport=gas_transport(geom='nonlinear',
                                diam=7.647,
                                well_depth=576.372))

species(name=u'CH3O3(109)',
        atoms='C:1 H:3 O:3',
        thermo=(NASA([100.00, 853.61],
                     [ 3.24523803E+00,  3.16188428E-02, -8.37890189E-05,
                       1.09319000E-07, -4.73204798E-11, -4.48856806E+04,
                       1.41784385E+01]),
                NASA([853.61, 5000.00],
                     [-6.08759958E+00,  3.51521534E-02, -1.93557161E-05,
                       3.82492929E-09, -2.65476156E-13, -4.18277810E+04,
                       6.63055532E+01])),
        transport=gas_transport(geom='nonlinear',
                                diam=6.621,
                                well_depth=506.876))

species(name=u'S(114)',
        atoms='C:2 H:6 O:5',
        thermo=(NASA([100.00, 849.73],
                     [ 9.23344610E-01,  8.42978039E-02, -1.65843069E-04,
                       1.71346321E-07, -6.54874528E-11, -1.15563650E+05,
                       2.76931846E+01]),
                NASA([849.73, 5000.00],
                     [ 1.37205370E+00,  4.27241465E-02, -2.27941119E-05,
                       4.46211467E-09, -3.08555870E-13, -1.14215277E+05,
                       3.39843486E+01])),
        transport=gas_transport(geom='nonlinear',
                                diam=7.86,
                                well_depth=613.165))

species(name=u'S(118)',
        atoms='C:2 H:5 O:3',
        thermo=(NASA([100.00, 923.53],
                     [ 1.84242231E+00,  2.79896638E-02,  3.71625653E-05,
                      -8.39964408E-08,  3.85746696E-11, -4.25759609E+04,
                       1.93657308E+01]),
                NASA([923.53, 5000.00],
                     [ 2.03363590E+01, -1.73453701E-03,  3.61840866E-06,
                      -7.17089971E-10,  4.20096421E-14, -4.81402425E+04,
                      -8.00167307E+01])),
        transport=gas_transport(geom='nonlinear',
                                diam=6.41,
                                well_depth=471.357))

species(name=u'CH3O3(137)',
        atoms='C:1 H:3 O:3',
        thermo=(NASA([100.00, 863.68],
                     [ 2.72609039E+00,  3.51836900E-02, -6.95440714E-05,
                       7.15582667E-08, -2.70249891E-11, -4.75235477E+04,
                       1.51597483E+01]),
                NASA([863.68, 5000.00],
                     [ 2.78860499E+00,  1.76326648E-02, -9.08303247E-06,
                       1.74807831E-09, -1.19411092E-13, -4.68905465E+04,
                       1.85944012E+01])),
        transport=gas_transport(geom='nonlinear',
                                diam=6.621,
                                well_depth=506.876))

species(name=u'S(139)',