units(length='cm', time='s', quantity='mol', act_energy='kcal/mol')

ideal_gas(name='gas',
          elements="H D T C Ci O Oi N Ne Ar He Si S Cl X",
          species="""n-heptane   Ar          He          Ne
                     N2          C2H4(2)     C4H8-1(3)   C4H8-2(4)
                     C4H6(7)     C3H6(32)    H2(68)      C6H10(158)
                     C8H14(165)  C4H8(187)   CH4(413)    C5H10(416)
                     C5H10(419)  C2H6(428)   C3H8(444)   C5H10(469)
                     C6H12(495)  C6H12(520)  C8H14(672)  C8H14(984)
                     S(1070)     S(1653)     S(1717)     S(2405)
                     S(3829)     S(3884)     S(3934)     S(5834)
                     S(6676)     S(7592)     S(8415)""",
          reactions='gas-*',
          initial_state=state(temperature=300.0, pressure=OneAtm))

ideal_interface(name='surface1',
                elements="H D T C Ci O Oi N Ne Ar He Si S Cl X",
                species="""X(1)        HX(5)       C2H3X(37)   allylX(38)
                          CH3X(39)    C2H5X(40)   C4H7X(41)   C4H7X(42)
                          C4H7X(43)   C4H7X(44)   C3H5X(45)   C4H7X(46)
                          C4H7X(47)   C4H5X(80)   C4H5X(81)   C6H9X(98)
                          SX(119)     SX(120)     C6H9X(126)  C4H7X(153)
                          SX(159)     SX(160)     C3H5X(181)  C4H7X(202)
                          SX(231)     C6H9X(247)  C5H7X(249)  C6H9X(287)
                          C6H9X(288)  C6H9X(289)  SX(324)     SX(325)
                          SX(326)     SX(358)     SX(361)     SX(370)
                          C3H7X(409)  C5H9X(414)  C5H9X(415)  SX(499)
                          C6H9X(524)  C6H9X(556)  C6H9X(557)  C6H9X(558)
                          SX(562)     SX(563)     SX(574)     C6H9X(648)
                          SX(651)     C6H9X(683)  SX(687)     SX(688)
                          SX(698)     C5H9X(714)  C5H9X(742)  C5H9X(771)
                          SX(801)     SX(833)     C5H9X(883)  SX(949)
                          SX(950)     C6H9X(959)  C6H9X(960)  SX(1004)
                          SX(1005)    SX(1007)    SX(1009)    SX(1010)
                          SX(1021)    SX(1050)    SX(1091)    SX(1093)
                          SX(1136)    SX(1219)    SX(1267)    SX(1306)
                          SX(1338)    SX(1339)    SX(1350)    SX(1436)
                          SX(1438)    SX(1477)    SX(1549)    SX(1578)
                          SX(1579)    SX(1580)    SX(1582)    SX(1633)
                          SX(1637)    SX(1669)    SX(1696)    SX(1746)
                          SX(1806)    SX(1807)    SX(1808)    SX(1809)
                          SX(1810)    SX(1846)    SX(1945)    SX(1975)
                          SX(1976)    SX(2033)    SX(2065)    SX(2066)
                          SX(2067)    SX(2101)    SX(2102)    SX(2219)
                          SX(2221)    SX(2249)    SX(2275)    SX(2276)
                          SX(2360)    SX(2390)    SX(2416)    SX(2441)
                          SX(2442)    SX(2471)    SX(2472)    SX(2523)
                          SX(2550)    SX(2658)    SX(2659)    SX(3030)
                          SX(3090)    SX(3091)    SX(3522)    SX(3523)
                          SX(3525)    SX(3526)    SX(3527)    SX(3779)
                          SX(3810)    SX(3811)    SX(3867)    SX(3918)
                          SX(4239)    SX(4240)    SX(4241)    SX(4242)
                          SX(4331)    SX(4455)    SX(4525)    SX(4798)
                          SX(4874)    SX(4955)    SX(4984)    SX(5134)
                          SX(5332)    SX(5591)    SX(5592)    SX(5814)
                          SX(5815)    SX(5818)    SX(5976)    SX(6118)
                          SX(6124)    SX(6169)    SX(6201)    SX(6268)
                          SX(6285)    SX(6303)    SX(6355)    SX(6596)
                          SX(6640)    SX(6643)    SX(6645)    SX(6671)
                          SX(6673)    SX(6689)    SX(6690)    SX(6696)
                          SX(6705)    SX(6706)    SX(6707)    SX(6723)
                          SX(6724)    SX(6725)    SX(6746)    SX(6747)
                          SX(6748)    SX(6749)    SX(6759)    SX(6760)
                          SX(6761)    SX(6798)    SX(6808)    SX(6809)
                          SX(6818)    SX(6819)    SX(6828)    SX(6829)
                          SX(6830)    SX(6838)    SX(6839)    SX(6840)
                          SX(6846)    SX(6868)    SX(6869)    SX(6886)
                          SX(6887)    SX(6896)    SX(6897)    SX(6906)
                          SX(6907)    SX(6908)    SX(6916)    SX(6917)
                          SX(6918)    SX(6926)    SX(6927)    SX(6937)
                          SX(6938)    SX(6973)    SX(6974)    SX(6975)
                          SX(6976)    SX(6984)    SX(6985)    SX(6993)
                          SX(6994)    SX(6995)    SX(6996)    SX(7005)
                          SX(7006)    SX(7011)    SX(7059)    SX(7067)
                          SX(7068)    SX(7077)    SX(7078)    SX(7079)
                          SX(7100)    SX(7109)    SX(7110)    SX(7111)
                          SX(7174)    SX(7175)    SX(7222)    SX(7223)
                          SX(7266)    SX(7267)    SX(7370)    SX(7371)
                          SX(7463)    SX(7464)    SX(7493)    SX(7519)
                          SX(7573)    SX(7575)    SX(7624)    SX(7698)
                          SX(7999)    SX(8000)    SX(8002)    SX(8003)
                          SX(8004)    SX(8046)    SX(8165)    SX(8205)
                          SX(8206)    SX(8208)    SX(8258)    SX(8268)
                          SX(8290)    SX(8333)    SX(8373)    SX(8403)
                          SX(8411)    SX(8424)    SX(8637)    SX(8677)
                          SX(8694)    SX(8699)    SX(8705)    SX(8706)
                          SX(8707)    SX(8855)    SX(8862)    SX(8869)
                          SX(8870)    SX(8895)    SX(8901)    SX(8910)
                          SX(8911)    SX(8923)""",
                site_density=2.72e-09,
                phases="gas",
          reactions='surface1-*',
                initial_state=state(temperature=300.0, pressure=OneAtm))

#-------------------------------------------------------------------------------
# Element data
#-------------------------------------------------------------------------------

element(symbol=u'X', atomic_mass=195.083)
element(symbol=u'Ci', atomic_mass=13.003)
element(symbol=u'D', atomic_mass=2.014)
element(symbol=u'Oi', atomic_mass=18.0)
element(symbol=u'T', atomic_mass=3.016)
#-------------------------------------------------------------------------------
# Species data
#-------------------------------------------------------------------------------

species(name=u'n-heptane',
        atoms='H:16 C:7',
        thermo=(NASA([100.00, 1262.73],
                     [-2.91681405E-03,  7.69373649E-02, -3.48025563E-05,
                       1.86095180E-09,  2.01573617E-12, -2.57829342E+04,
                       3.00312148E+01]),
                NASA([1262.73, 5000.00],
                     [ 1.38377915E+01,  4.85945016E-02, -1.95474548E-05,
                       3.52837178E-09, -2.39064676E-13, -3.05141556E+04,
                      -4.48642836E+01])))

species(name=u'Ar',
        atoms='Ar:1',
        thermo=(NASA([200.00, 1000.00],
                     [ 2.50000000E+00,  0.00000000E+00,  0.00000000E+00,
                       0.00000000E+00,  0.00000000E+00, -7.45375000E+02,
                       4.37967000E+00]),
                NASA([1000.00, 6000.00],
                     [ 2.50000000E+00,  0.00000000E+00,  0.00000000E+00,
                       0.00000000E+00,  0.00000000E+00, -7.45375000E+02,
                       4.37967000E+00])))

species(name=u'He',
        atoms='He:1',
        thermo=(NASA([200.00, 1000.00],
                     [ 2.50000000E+00,  0.00000000E+00,  0.00000000E+00,
                       0.00000000E+00,  0.00000000E+00, -7.45375000E+02,
                       9.28724000E-01]),
                NASA([1000.00, 6000.00],
                     [ 2.50000000E+00,  0.00000000E+00,  0.00000000E+00,
                       0.00000000E+00,  0.00000000E+00, -7.45375000E+02,
                       9.28724000E-01])))

species(name=u'Ne',
        atoms='Ne:1',
        thermo=(NASA([200.00, 1000.00],
                     [ 2.50000000E+00,  0.00000000E+00,  0.00000000E+00,
                       0.00000000E+00,  0.00000000E+00, -7.45375000E+02,
                       3.35532000E+00]),
                NASA([1000.00, 6000.00],
                     [ 2.50000000E+00,  0.00000000E+00,  0.00000000E+00,
                       0.00000000E+00,  0.00000000E+00, -7.45375000E+02,
                       3.35532000E+00])))

species(name=u'N2',
        atoms='N:2',
        thermo=(NASA([200.00, 1000.00],
                     [ 3.53101000E+00, -1.23661000E-04, -5.02999000E-07,
                       2.43531000E-09, -1.40881000E-12, -1.04698000E+03,
                       2.96747000E+00]),
                NASA([1000.00, 6000.00],
                     [ 2.95258000E+00,  1.39690000E-03, -4.92632000E-07,
                       7.86010000E-11, -4.60755000E-15, -9.23949000E+02,
                       5.87189000E+00])))

species(name=u'C2H4(2)',
        atoms='H:4 C:2',
        thermo=(NASA([100.00, 979.36],
                     [ 3.97471606E+00, -4.75844285E-03,  4.16783770E-05,
                      -4.51392516E-08,  1.54224761E-11,  4.91540746E+03,
                       3.62430844E+00]),
                NASA([979.36, 5000.00],
                     [ 3.55660610E+00,  1.10627464E-02, -4.17019079E-06,
                       7.85586770E-10, -5.70060829E-14,  4.32046489E+03,
                       2.17719479E+00])))

species(name=u'C4H8-1(3)',
        atoms='H:8 C:4',
        thermo=(NASA([100.00, 1007.28],
                     [ 2.58772906E+00,  2.32777969E-02,  1.93412349E-05,
                      -3.55496333E-08,  1.36906009E-11, -1.91872926E+03,
                       1.45750618E+01]),
                NASA([1007.28, 5000.00],
                     [ 7.20517168E+00,  2.36361568E-02, -9.03150028E-06,
                       1.65392666E-09, -1.16019260E-13, -3.79733937E+03,
                      -1.24426257E+01])))

species(name=u'C4H8-2(4)',
        atoms='H:8 C:4',
        thermo=(NASA([100.00, 1157.79],
                     [ 2.51998327E+00,  2.76812799E-02,  9.43783469E-07,
                      -1.25009101E-08,  4.67144666E-12, -3.34374767E+03,
                       1.30195623E+01]),
                NASA([1157.79, 5000.00],
                     [ 6.04225708E+00,  2.60072350E-02, -1.04843374E-05,
                       1.90880922E-09, -1.30600505E-13, -4.86276511E+03,
                      -7.52715109E+00])))

species(name=u'C4H6(7)',
        atoms='H:6 C:4',
        thermo=(NASA([100.00, 946.05],
                     [ 2.80599310E+00,  1.02584471E-02,  6.17260255E-05,
                      -9.01642687E-08,  3.59116961E-11,  1.16584972E+04,
                       1.20621434E+01]),
                NASA([946.05, 5000.00],
                     [ 1.24693720E+01,  1.00553901E-02, -2.41206872E-06,
                       4.57077303E-10, -3.93160571E-14,  8.01077795E+03,
                      -4.36374720E+01])))

species(name=u'C3H6(32)',
        atoms='H:6 C:3',
        thermo=(NASA([100.00, 983.75],
                     [ 3.31912102E+00,  8.17958674E-03,  3.34736123E-05,
                      -4.36193684E-08,  1.58213364E-11,  7.49325328E+02,
                       9.54025058E+00]),
                NASA([983.75, 5000.00],
                     [ 5.36755173E+00,  1.70743019E-02, -6.35107626E-06,
                       1.16619529E-09, -8.27620279E-14, -4.87138326E+02,
                      -4.54467529E+00])))

species(name=u'H2(68)',
        atoms='H:2',
        thermo=(NASA([100.00, 1959.08],
                     [ 3.43536412E+00,  2.12710353E-04, -2.78625043E-07,
                       3.40267167E-10, -7.76031998E-14, -1.03135984E+03,
                      -3.90841732E+00]),
                NASA([1959.08, 5000.00],
                     [ 2.78816583E+00,  5.87640942E-04,  1.59010417E-07,
                      -5.52739026E-11,  4.34310984E-15, -5.96144270E+02,
                       1.12732655E-01])))

species(name=u'C6H10(158)',
        atoms='H:10 C:6',
        thermo=(NASA([100.00, 1020.63],
                     [ 9.97427413E-01,  5.59777045E-02, -2.05880600E-05,
                      -1.17182304E-08,  8.13452041E-12,  6.30749855E+03,
                       2.38941836E+01]),
                NASA([1020.63, 5000.00],
                     [ 1.33828218E+01,  2.83661253E-02, -1.07663110E-05,
                       1.95749020E-09, -1.36589418E-13,  2.68926840E+03,
                      -4.14511818E+01])))

species(name=u'C8H14(165)',
        atoms='H:14 C:8',
        thermo=(NASA([100.00, 1014.29],
                     [-3.67121846E-01,  8.14233516E-02, -3.11110886E-05,
                      -1.65487757E-08,  1.19185866E-11, -3.02333684E+03,
                       2.93103531E+01]),
                NASA([1014.29, 5000.00],
                     [ 1.79686767E+01,  3.98264136E-02, -1.50150741E-05,
                       2.72531006E-09, -1.90287561E-13, -8.32275149E+03,
                      -6.71974026E+01])))

species(name=u'C4H8(187)',
        atoms='H:8 C:4',
        thermo=(NASA([100.00, 1061.33],
                     [ 2.52504770E+00,  2.64752782E-02,  7.08359238E-06,
                      -2.07731462E-08,  8.00430055E-12, -4.02607130E+03,
                       1.28857274E+01]),
                NASA([1061.33, 5000.00],
                     [ 6.48672669E+00,  2.49943921E-02, -9.83283171E-06,
                       1.79343299E-09, -1.24008235E-13, -5.62452310E+03,
                      -1.00316397E+01])))

species(name=u'CH4(413)',
        atoms='H:4 C:1',
        thermo=(NASA([100.00, 1084.12],
                     [ 4.20541524E+00, -5.35557362E-03,  2.51123265E-05,
                      -2.13762843E-08,  5.97523937E-12, -1.01619433E+04,
                      -9.21279283E-01]),
                NASA([1084.12, 5000.00],
                     [ 9.08265721E-01,  1.14540858E-02, -4.57173828E-06,
                       8.29191671E-10, -5.66314895E-14, -9.71997444E+03,
                       1.39930944E+01])))

species(name=u'C5H10(416)',
        atoms='H:10 C:5',
        thermo=(NASA([100.00, 1883.68],
                     [ 2.29195787E+00,  4.21076449E-02, -1.49304794E-05,
                      -1.22102583E-10,  5.99441346E-13, -4.98138150E+03,
                       1.67887076E+01]),
                NASA([1883.68, 5000.00],
                     [ 1.47438472E+01,  2.72460315E-02, -1.23172689E-05,
                       2.21660273E-09, -1.44084857E-13, -1.17269008E+04,
                      -5.66226025E+01])))

species(name=u'C5H10(419)',
        atoms='H:10 C:5',
        thermo=(NASA([100.00, 1065.88],
                     [ 1.83973645E+00,  3.88165649E-02,  3.95415802E-06,
                      -2.48620336E-08,  1.01608534E-11, -6.45875726E+03,
                       1.88194915E+01]),
                NASA([1065.88, 5000.00],
                     [ 8.87931728E+00,  3.15047857E-02, -1.26438740E-05,
                       2.33666558E-09, -1.63001335E-13, -9.04475166E+03,
                      -2.06827600E+01])))

species(name=u'C2H6(428)',
        atoms='H:6 C:2',
        thermo=(NASA([100.00, 1012.42],
                     [ 3.72239291E+00,  1.65083841E-03,  3.44175530E-05,
                      -3.76858229E-08,  1.24450657E-11, -1.15575901E+04,
                       4.68247999E+00]),
                NASA([1012.42, 5000.00],
                     [ 2.82848257E+00,  1.73040568E-02, -6.73334245E-06,
                       1.23742024E-09, -8.65676410E-14, -1.19978080E+04,
                       5.93811707E+00])))

species(name=u'C3H8(444)',
        atoms='H:8 C:3',
        thermo=(NASA([100.00, 989.99],
                     [ 3.06336167E+00,  1.29214561E-02,  3.47032808E-05,
                      -4.70946154E-08,  1.71384141E-11, -1.43905789E+04,
                       1.07835592E+01]),
                NASA([989.99, 5000.00],
                     [ 5.60440043E+00,  2.19528785E-02, -8.22080610E-06,
                       1.50103993E-09, -1.05635358E-13, -1.58394038E+04,
                      -6.22623300E+00])))

species(name=u'C5H10(469)',
        atoms='H:10 C:5',
        thermo=(NASA([100.00, 1054.71],
                     [ 2.07229480E+00,  3.36844001E-02,  1.40189744E-05,
                      -3.27909735E-08,  1.24687335E-11, -7.08395627E+03,
                       1.85216921E+01]),
                NASA([1054.71, 5000.00],
                     [ 7.69906317E+00,  3.25047725E-02, -1.29748243E-05,
                       2.39429532E-09, -1.67023134E-13, -9.39218314E+03,
                      -1.42396425E+01])))

species(name=u'C6H12(495)',
        atoms='H:12 C:6',
        thermo=(NASA([100.00, 1917.57],
                     [ 2.29989638E+00,  4.93347109E-02, -1.39908418E-05,
                      -2.79410381E-09,  1.20747058E-12, -1.03230301E+04,
                       1.84311611E+01]),
                NASA([1917.57, 5000.00],
                     [ 1.85703860E+01,  3.37500613E-02, -1.61580314E-05,
                       2.95111967E-09, -1.92346931E-13, -1.99376584E+04,
                      -7.94569206E+01])))

species(name=u'C6H12(520)',
        atoms='H:12 C:6',
        thermo=(NASA([100.00, 1829.14],
                     [ 7.23497206E-01,  6.40962986E-02, -3.88937857E-05,
                       1.18285810E-08, -1.46479639E-12, -9.55473307E+03,
                       2.34752956E+01]),
                NASA([1829.14, 5000.00],
                     [ 1.55815550E+01,  3.16049972E-02, -1.22495396E-05,
                       2.11773097E-09, -1.37578189E-13, -1.49903266E+04,
                      -5.71784952E+01])))

species(name=u'C8H14(672)',
        atoms='H:14 C:8',
        thermo=(NASA([100.00, 1506.76],
                     [ 5.49675181E-02,  8.43985440E-02, -5.64633487E-05,
                       1.98661295E-08, -2.94599969E-12, -7.77393079E+02,
                       2.95663347E+01]),
                NASA([1506.76, 5000.00],
                     [ 1.39949012E+01,  4.73919655E-02, -1.96226018E-05,
                       3.56583689E-09, -2.41458224E-13, -4.97819756E+03,
                      -4.34005510E+01])))

species(name=u'C8H14(984)',
        atoms='H:14 C:8',
        thermo=(NASA([100.00, 1016.25],
                     [-1.96777655E-01,  7.73097837E-02, -2.22069863E-05,
                      -2.37965356E-08,  1.39851151E-11, -2.84093532E+03,
                       3.12908370E+01]),
                NASA([1016.25, 5000.00],
                     [ 1.72431734E+01,  4.07120734E-02, -1.54898359E-05,
                       2.82734689E-09, -1.98026375E-13, -8.04042418E+03,
                      -6.12697843E+01])))

species(name=u'S(1070)',
        atoms='H:14 C:8',
        thermo=(NASA([100.00, 999.32],
                     [-8.27296041E-02,  7.33926821E-02, -9.70961131E-06,
                      -3.77339221E-08,  1.91784792E-11, -2.27794802E+03,
                       3.16114703E+01]),
                NASA([999.32, 5000.00],
                     [ 1.74908493E+01,  3.99675318E-02, -1.49508424E-05,
                       2.72972667E-09, -1.92366979E-13, -7.63361766E+03,
                      -6.23819175E+01])))

species(name=u'S(1653)',
        atoms='H:18 C:10',
        thermo=(NASA([100.00, 1158.48],
                     [-1.73167591E+00,  1.09077891E-01, -5.83333229E-05,
                       5.40067358E-09,  3.60301005E-12, -6.92483725E+03,
                       4.08092886E+01]),
                NASA([1158.48, 5000.00],
                     [ 2.11409181E+01,  5.59043600E-02, -2.28913870E-05,
                       4.22976090E-09, -2.93014074E-13, -1.39556654E+04,
                      -8.03749852E+01])))

species(name=u'S(1717)',
        atoms='H:14 C:8',
        thermo=(NASA([100.00, 1061.60],
                     [-2.92612015E-01,  8.13598166E-02, -3.75111047E-05,
                      -5.26746011E-09,  6.79996745E-12, -3.15203310E+03,
                       3.11249298E+01]),
                NASA([1061.60, 5000.00],
                     [ 1.65258017E+01,  4.22160438E-02, -1.64331635E-05,
                       2.99218456E-09, -2.07335165E-13, -8.08806756E+03,
                      -5.74492182E+01])))

species(name=u'S(2405)',
        atoms='H:18 C:10',
        thermo=(NASA([100.00, 1380.53],
                     [-1.24630044E+00,  1.14045057E-01, -8.17752249E-05,
                       3.15462852E-08, -5.16232066E-12, -8.15220733E+03,
                       3.79046400E+01]),
                NASA([1380.53, 5000.00],
                     [ 1.62908629E+01,  6.32321518E-02, -2.65649428E-05,
                       4.88485819E-09, -3.34200347E-13, -1.29943174E+04,
                      -5.23571791E+01])))

species(name=u'S(3829)',
        atoms='H:18 C:10',
        thermo=(NASA([100.00, 1038.10],
                     [-1.63606842E+00,  1.05948223E-01, -4.48721255E-05,
                      -1.37610845E-08,  1.19267863E-11, -9.13856725E+03,
                       4.08578356E+01]),
                NASA([1038.10, 5000.00],
                     [ 2.12270975E+01,  5.35110627E-02, -2.06291097E-05,
                       3.76028699E-09, -2.61802446E-13, -1.58068004E+04,
                      -7.95529940E+01])))

species(name=u'S(3884)',
        atoms='H:18 C:10',
        thermo=(NASA([100.00, 1039.92],
                     [-1.68892614E+00,  1.04892160E-01, -3.63678012E-05,
                      -2.44904322E-08,  1.57571722E-11, -8.20566676E+03,
                       3.91111957E+01]),
                NASA([1039.92, 5000.00],
                     [ 2.26524637E+01,  5.26991456E-02, -2.08505326E-05,
                       3.87716665E-09, -2.73674615E-13, -1.55087267E+04,
                      -9.00469670E+01])))

species(name=u'S(3934)',
        atoms='H:18 C:10',
        thermo=(NASA([100.00, 1188.78],
                     [-1.95300717E+00,  1.15046892E-01, -7.59923563E-05,
                       2.20571103E-08, -1.46154816E-12, -1.03349424E+04,
                       4.06077933E+01]),
                NASA([1188.78, 5000.00],
                     [ 2.15567328E+01,  5.36921349E-02, -2.09728234E-05,
                       3.76285270E-09, -2.55770737E-13, -1.71787854E+04,
                      -8.21540077E+01])))

species(name=u'S(5834)',
        atoms='H:18 C:10',
        thermo=(NASA([100.00, 1091.06],
                     [-1.75140178E+00,  1.10205167E-01, -6.07838718E-05,
                       5.37602654E-09,  4.56468895E-12, -9.27267051E+03,
                       3.99141768E+01]),
                NASA([1091.06, 5000.00],
                     [ 2.07353004E+01,  5.46510751E-02, -2.13704545E-05,
                       3.87875579E-09, -2.67347996E-13, -1.57797898E+04,
                      -7.78643522E+01])))

species(name=u'S(6676)',
        atoms='H:22 C:12',
        thermo=(NASA([100.00, 1560.60],
                     [-3.64054127E+00,  1.45950192E-01, -1.05415282E-04,
                       3.92761964E-08, -5.92020768E-12, -1.58527244E+04,
                       5.18478521E+01]),
                NASA([1560.60, 5000.00],
                     [ 2.99361750E+01,  5.98898044E-02, -2.26973547E-05,
                       3.94051510E-09, -2.59658559E-13, -2.63327690E+04,
                      -1.25084652E+02])))

species(name=u'S(7592)',
        atoms='H:18 C:10',
        thermo=(NASA([100.00, 1324.90],
                     [-1.71620699E+00,  1.09484072E-01, -6.53616543E-05,
                       1.61463329E-08, -7.58445344E-13, -7.20151868E+03,
                       4.04599449E+01]),
                NASA([1324.90, 5000.00],
                     [ 2.18554869E+01,  5.49952764E-02, -2.25519900E-05,
                       4.10557641E-09, -2.79086432E-13, -1.49111974E+04,
                      -8.54150774E+01])))

species(name=u'S(8415)',
        atoms='H:22 C:12',
        thermo=(NASA([100.00, 1082.53],
                     [-3.26556642E+00,  1.37682898E-01, -7.21524451E-05,
                      -2.44294212E-11,  8.44039536E-12, -1.50652391E+04,
                       4.84436248E+01]),
                NASA([1082.53, 5000.00],
                     [ 2.67295110E+01,  6.56933571E-02, -2.62241925E-05,
                       4.83784298E-09, -3.37441242E-13, -2.38353423E+04,
                      -1.09156285E+02])))

species(name=u'X(1)',
        atoms='X:1',
        thermo=(NASA([100.00, 1554.80],
                     [ 7.10139498E-03, -4.25619522E-05,  8.98533016E-08,
                      -7.80193649E-11,  2.32465471E-14, -8.76101712E-01,
                      -3.11211229E-02]),
                NASA([1554.80, 5000.00],
                     [ 1.60299900E-01, -2.52235409E-04,  1.14181275E-07,
                      -1.21471653E-11,  3.85790025E-16, -7.08100885E+01,
                      -9.09527530E-01])))

species(name=u'HX(5)',
        atoms='H:1 X:1',
        thermo=(NASA([100.00, 952.91],
                     [-3.80965452E-01,  5.47228709E-03,  2.60912778E-06,
                      -9.64961980E-09,  4.63946753E-12, -2.16972714E+03,
                       1.01725550E+00]),
                NASA([952.91, 5000.00],
                     [ 2.80339655E+00, -5.41047017E-04,  4.99507978E-07,
                      -7.54963647E-11,  3.06772366E-15, -3.11047656E+03,
                      -1.59436787E+01])))

species(name=u'C2H3X(37)',
        atoms='H:3 C:2 X:1',
        thermo=(NASA([100.00, 928.62],
                     [ 3.83091018E+00, -8.76381562E-03,  6.97956896E-05,
                      -8.67969174E-08,  3.33218121E-11,  8.75012182E+02,
                      -1.81151753E+01]),
                NASA([928.62, 5000.00],
                     [ 8.78054562E+00,  1.92497720E-03,  8.25825014E-07,
                      -1.63749818E-10,  5.71728318E-15, -1.42439094E+03,
                      -4.90588618E+01])))

species(name=u'allylX(38)',
        atoms='H:5 C:3 X:1',
        thermo=(NASA([100.00, 937.34],
                     [ 3.44148119E+00, -3.47700003E-03,  8.25933681E-05,
                      -1.05556823E-07,  4.04445066E-11, -2.66682595E+03,
                      -6.88846669E+00]),
                NASA([937.34, 5000.00],
                     [ 9.98148902E+00,  8.92268754E-03, -1.75442587E-06,
                       3.12285771E-10, -2.84156572E-14, -5.66362359E+03,
                      -4.74626902E+01])))

species(name=u'CH3X(39)',
        atoms='H:3 C:1 X:1',
        thermo=(NASA([100.00, 848.30],
                     [-1.21090496E+00,  2.92390681E-02, -4.49011079E-05,
                       3.86009808E-08, -1.30361041E-11, -6.84550445E+03,
                       6.80939750E+00]),
                NASA([848.30, 5000.00],
                     [ 1.62290877E+00,  1.12987268E-02, -5.08316908E-06,
                       9.46833581E-10, -6.42885536E-14, -7.16156936E+03,
                      -5.42501059E+00])))

species(name=u'C2H5X(40)',
        atoms='H:5 C:2 X:1',
        thermo=(NASA([100.00, 803.81],
                     [-1.64625424E+00,  3.89626488E-02, -4.31128887E-05,
                       2.97076939E-08, -8.80222915E-12, -1.08291795E+04,
                       9.27323637E+00]),
                NASA([803.81, 5000.00],
                     [ 1.97598112E+00,  2.09382766E-02, -9.47916922E-06,
                       1.81392948E-09, -1.27206354E-13, -1.14115283E+04,
                      -7.41107956E+00])))

species(name=u'C4H7X(41)',
        atoms='H:7 C:4 X:1',
        thermo=(NASA([100.00, 971.02],
                     [ 2.64365035E+00,  1.79007589E-02,  4.24443189E-05,
                      -6.44028479E-08,  2.49593993E-11, -6.62353538E+03,
                      -6.69991651E+00]),
                NASA([971.02, 5000.00],
                     [ 9.25871667E+00,  2.04064152E-02, -7.39143670E-06,
                       1.37021231E-09, -9.94133357E-14, -9.31101951E+03,
                      -4.56426102E+01])))

species(name=u'C4H7X(42)',
        atoms='H:7 C:4 X:1',
        thermo=(NASA([100.00, 986.67],
                     [ 2.45798205E+00,  2.47217336E-02,  2.01285964E-05,
                      -4.02735564E-08,  1.62485845E-11,  1.77865167E+03,
                      -5.12991781E+00]),
                NASA([986.67, 5000.00],
                     [ 8.87898065E+00,  2.09043993E-02, -7.83851223E-06,
                       1.44076477E-09, -1.02346878E-13, -5.69704442E+02,
                      -4.15007572E+01])))

species(name=u'C4H7X(43)',
        atoms='H:7 C:4 X:1',
        thermo=(NASA([100.00, 965.06],
                     [ 2.56877619E+00,  1.97500674E-02,  3.72961301E-05,
                      -6.04017092E-08,  2.39989018E-11, -6.89495624E+03,
                      -8.56564322E+00]),
                NASA([965.06, 5000.00],
                     [ 9.89778724E+00,  1.86142959E-02, -6.38884453E-06,
                       1.17309353E-09, -8.55406646E-14, -9.67124745E+03,
                      -5.07182348E+01])))

species(name=u'C4H7X(44)',
        atoms='H:7 C:4 X:1',
        thermo=(NASA([100.00, 949.35],
                     [ 2.54254539E+00,  1.77389010E-02,  4.93877612E-05,
                      -7.72878178E-08,  3.10660019E-11, -5.66932294E+03,
                      -8.46783968E+00]),
                NASA([949.35, 5000.00],
                     [ 1.15220223E+01,  1.60005944E-02, -4.89823595E-06,
                       8.83972924E-10, -6.63710570E-14, -9.00085528E+03,
                      -5.98888028E+01])))

species(name=u'C3H5X(45)',
        atoms='H:5 C:3 X:1',
        thermo=(NASA([100.00, 939.06],
                     [ 3.23683359E+00,  3.73132320E-03,  6.01028900E-05,
                      -8.16245569E-08,  3.18536011E-11, -2.93822941E+03,
                      -1.35295467E+01]),
                NASA([939.06, 5000.00],