units(length='cm', time='s', quantity='mol', act_energy='kcal/mol')

ideal_gas(name='gas',
          elements="H D T C Ci O Oi N Ne Ar He Si S Cl X",
          species="""n-heptane  Ar         He         Ne         N2
                     C2H4(2)    C4H8-1(3)  C4H8-2(4)  C4H6(7)    H2(68)
                     C6H8(119)  S(205)     S(216)     S(276)     S(321)
                     S(385)     S(395)     S(441)     S(463)     S(501)
                     S(722)     S(802)     S(936)     S(1040)    S(1078)
                     S(1130)    S(1375)    S(1511)    S(1529)    S(1648)
                     S(1727)    S(2027)    S(2102)    S(2103)    S(2499)
                     S(2708)    S(2960)    S(3047)    S(3052)""",
          reactions='gas-*',
          initial_state=state(temperature=300.0, pressure=OneAtm))

ideal_interface(name='surface1',
                elements="H D T C Ci O Oi N Ne Ar He Si S Cl X",
                species="""X(1)        HX(5)       C2H3X(37)   C4H5X(80)
                          C4H5X(81)   C6H7X(143)  SX(337)     SX(338)
                          SX(340)     SX(341)     SX(342)     SX(343)
                          SX(344)     SX(372)     SX(373)     SX(378)
                          SX(379)     SX(382)     SX(393)     SX(394)
                          C7H9X(397)  SX(413)     SX(432)     SX(493)
                          SX(591)     C5H7X(678)  SX(679)     SX(681)
                          SX(684)     SX(685)     SX(686)     SX(687)
                          SX(688)     SX(825)     SX(826)     SX(828)
                          SX(829)     SX(830)     SX(831)     SX(832)
                          SX(833)     SX(897)     SX(901)     SX(916)
                          SX(917)     SX(930)     SX(985)     SX(987)
                          SX(988)     SX(989)     SX(991)     SX(1123)
                          SX(1127)    SX(1128)    SX(1151)    SX(1152)
                          SX(1164)    SX(1249)    SX(1251)    SX(1252)
                          SX(1253)    SX(1255)    SX(1256)    SX(1257)
                          SX(1273)    SX(1348)    SX(1350)    SX(1352)
                          SX(1354)    SX(1355)    SX(1356)    SX(1370)
                          SX(1373)    SX(1479)    SX(1481)    SX(1522)
                          SX(1525)    SX(1526)    SX(1542)    SX(1643)
                          SX(1644)    SX(1667)    SX(1892)    SX(1972)
                          SX(2493)    SX(2522)    SX(2523)    SX(2525)
                          SX(2646)    SX(2650)    SX(2651)    SX(2773)
                          SX(2819)    SX(2851)    SX(2857)    SX(2955)
                          SX(2956)    SX(2979)    SX(3058)    SX(3060)""",
                site_density=2.72e-09,
                phases="gas",
          reactions='surface1-*',
                initial_state=state(temperature=300.0, pressure=OneAtm))

#-------------------------------------------------------------------------------
# Element data
#-------------------------------------------------------------------------------

element(symbol=u'X', atomic_mass=195.083)
element(symbol=u'Ci', atomic_mass=13.003)
element(symbol=u'D', atomic_mass=2.014)
element(symbol=u'Oi', atomic_mass=18.0)
element(symbol=u'T', atomic_mass=3.016)
#-------------------------------------------------------------------------------
# Species data
#-------------------------------------------------------------------------------

species(name=u'n-heptane',
        atoms='H:16 C:7',
        thermo=(NASA([100.00, 1262.73],
                     [-2.91681405E-03,  7.69373649E-02, -3.48025563E-05,
                       1.86095180E-09,  2.01573617E-12, -2.57829342E+04,
                       3.00312148E+01]),
                NASA([1262.73, 5000.00],
                     [ 1.38377915E+01,  4.85945016E-02, -1.95474548E-05,
                       3.52837178E-09, -2.39064676E-13, -3.05141556E+04,
                      -4.48642836E+01])))

species(name=u'Ar',
        atoms='Ar:1',
        thermo=(NASA([200.00, 1000.00],
                     [ 2.50000000E+00,  0.00000000E+00,  0.00000000E+00,
                       0.00000000E+00,  0.00000000E+00, -7.45375000E+02,
                       4.37967000E+00]),
                NASA([1000.00, 6000.00],
                     [ 2.50000000E+00,  0.00000000E+00,  0.00000000E+00,
                       0.00000000E+00,  0.00000000E+00, -7.45375000E+02,
                       4.37967000E+00])))

species(name=u'He',
        atoms='He:1',
        thermo=(NASA([200.00, 1000.00],
                     [ 2.50000000E+00,  0.00000000E+00,  0.00000000E+00,
                       0.00000000E+00,  0.00000000E+00, -7.45375000E+02,
                       9.28724000E-01]),
                NASA([1000.00, 6000.00],
                     [ 2.50000000E+00,  0.00000000E+00,  0.00000000E+00,
                       0.00000000E+00,  0.00000000E+00, -7.45375000E+02,
                       9.28724000E-01])))

species(name=u'Ne',
        atoms='Ne:1',
        thermo=(NASA([200.00, 1000.00],
                     [ 2.50000000E+00,  0.00000000E+00,  0.00000000E+00,
                       0.00000000E+00,  0.00000000E+00, -7.45375000E+02,
                       3.35532000E+00]),
                NASA([1000.00, 6000.00],
                     [ 2.50000000E+00,  0.00000000E+00,  0.00000000E+00,
                       0.00000000E+00,  0.00000000E+00, -7.45375000E+02,
                       3.35532000E+00])))

species(name=u'N2',
        atoms='N:2',
        thermo=(NASA([200.00, 1000.00],
                     [ 3.53101000E+00, -1.23661000E-04, -5.02999000E-07,
                       2.43531000E-09, -1.40881000E-12, -1.04698000E+03,
                       2.96747000E+00]),
                NASA([1000.00, 6000.00],
                     [ 2.95258000E+00,  1.39690000E-03, -4.92632000E-07,
                       7.86010000E-11, -4.60755000E-15, -9.23949000E+02,
                       5.87189000E+00])))

species(name=u'C2H4(2)',
        atoms='H:4 C:2',
        thermo=(NASA([100.00, 979.36],
                     [ 3.97471606E+00, -4.75844285E-03,  4.16783770E-05,
                      -4.51392516E-08,  1.54224761E-11,  4.91540746E+03,
                       3.62430844E+00]),
                NASA([979.36, 5000.00],
                     [ 3.55660610E+00,  1.10627464E-02, -4.17019079E-06,
                       7.85586770E-10, -5.70060829E-14,  4.32046489E+03,
                       2.17719479E+00])))

species(name=u'C4H8-1(3)',
        atoms='H:8 C:4',
        thermo=(NASA([100.00, 1007.28],
                     [ 2.58772906E+00,  2.32777969E-02,  1.93412349E-05,
                      -3.55496333E-08,  1.36906009E-11, -1.91872926E+03,
                       1.45750618E+01]),
                NASA([1007.28, 5000.00],
                     [ 7.20517168E+00,  2.36361568E-02, -9.03150028E-06,
                       1.65392666E-09, -1.16019260E-13, -3.79733937E+03,
                      -1.24426257E+01])))

species(name=u'C4H8-2(4)',
        atoms='H:8 C:4',
        thermo=(NASA([100.00, 1157.79],
                     [ 2.51998327E+00,  2.76812799E-02,  9.43783469E-07,
                      -1.25009101E-08,  4.67144666E-12, -3.34374767E+03,
                       1.30195623E+01]),
                NASA([1157.79, 5000.00],
                     [ 6.04225708E+00,  2.60072350E-02, -1.04843374E-05,
                       1.90880922E-09, -1.30600505E-13, -4.86276511E+03,
                      -7.52715109E+00])))

species(name=u'C4H6(7)',
        atoms='H:6 C:4',
        thermo=(NASA([100.00, 946.05],
                     [ 2.80599310E+00,  1.02584471E-02,  6.17260255E-05,
                      -9.01642687E-08,  3.59116961E-11,  1.16584972E+04,
                       1.20621434E+01]),
                NASA([946.05, 5000.00],
                     [ 1.24693720E+01,  1.00553901E-02, -2.41206872E-06,
                       4.57077303E-10, -3.93160571E-14,  8.01077795E+03,
                      -4.36374720E+01])))

species(name=u'H2(68)',
        atoms='H:2',
        thermo=(NASA([100.00, 1959.08],
                     [ 3.43536412E+00,  2.12710353E-04, -2.78625043E-07,
                       3.40267167E-10, -7.76031998E-14, -1.03135984E+03,
                      -3.90841732E+00]),
                NASA([1959.08, 5000.00],
                     [ 2.78816583E+00,  5.87640942E-04,  1.59010417E-07,
                      -5.52739026E-11,  4.34310984E-15, -5.96144270E+02,
                       1.12732655E-01])))

species(name=u'C6H8(119)',
        atoms='H:8 C:6',
        thermo=(NASA([100.00, 972.94],
                     [ 1.82686070E+00,  3.47046353E-02,  2.41070171E-05,
                      -5.44847920E-08,  2.29388832E-11,  1.99100661E+04,
                       1.81393315E+01]),
                NASA([972.94, 5000.00],
                     [ 1.21686202E+01,  2.40472785E-02, -8.58151834E-06,
                       1.57034031E-09, -1.12795334E-13,  1.63897115E+04,
                      -3.92195169E+01])))

species(name=u'S(205)',
        atoms='H:16 C:12',
        thermo=(NASA([100.00, 980.77],
                     [-2.21845665E+00,  1.15202302E-01, -4.46058253E-05,
                      -2.89292454E-08,  2.08193354E-11,  3.97133228E+04,
                       4.48687920E+01]),
                NASA([980.77, 5000.00],
                     [ 2.59409200E+01,  4.89148103E-02, -1.74910345E-05,
                       3.12129948E-09, -2.18247198E-13,  3.18543069E+04,
                      -1.02343316E+02])))

species(name=u'S(216)',
        atoms='H:16 C:12',
        thermo=(NASA([100.00, 989.29],
                     [-1.49871027E+00,  8.97231513E-02,  3.13728211E-05,
                      -1.05849951E-07,  4.65472901E-11,  2.08342656E+04,
                       3.86324941E+01]),
                NASA([989.29, 5000.00],
                     [ 2.71231573E+01,  4.82447418E-02, -1.83146882E-05,
                       3.49879125E-09, -2.57494969E-13,  1.15378770E+04,
                      -1.17506583E+02])))

species(name=u'S(276)',
        atoms='H:15 C:12',
        thermo=(NASA([100.00, 994.96],
                     [-9.10525753E-01,  7.23065908E-02,  7.86529115E-05,
                      -1.50118451E-07,  6.04728055E-11,  3.34535297E+04,
                       3.72742060E+01]),
                NASA([994.96, 5000.00],
                     [ 2.59409054E+01,  5.12026508E-02, -2.04595453E-05,
                       4.01923029E-09, -2.99921063E-13,  2.38116792E+04,
                      -1.13734786E+02])))

species(name=u'S(321)',
        atoms='H:16 C:12',
        thermo=(NASA([100.00, 1011.71],
                     [-1.20303342E+00,  8.13255676E-02,  5.51392531E-05,
                      -1.24057147E-07,  5.05122313E-11,  1.92626563E+04,
                       3.67681708E+01]),
                NASA([1011.71, 5000.00],
                     [ 2.55049272E+01,  5.47778999E-02, -2.26996210E-05,
                       4.46368808E-09, -3.29899575E-13,  9.81303791E+03,
                      -1.12386527E+02])))

species(name=u'S(385)',
        atoms='H:16 C:12',
        thermo=(NASA([100.00, 990.94],
                     [-1.53673879E+00,  9.50296733E-02,  8.13325447E-06,
                      -7.82185025E-08,  3.63989841E-11,  2.10168816E+04,
                       3.81765950E+01]),
                NASA([990.94, 5000.00],
                     [ 2.49483558E+01,  5.05143791E-02, -1.89287732E-05,
                       3.52660923E-09, -2.53947844E-13,  1.27044184E+04,
                      -1.04814787E+02])))

species(name=u'S(395)',
        atoms='H:15 C:12',
        thermo=(NASA([100.00, 970.90],
                     [-1.71520867E+00,  9.95432566E-02, -4.74357209E-06,
                      -7.04390643E-08,  3.56211412E-11,  3.34415592E+04,
                       3.83477263E+01]),
                NASA([970.90, 5000.00],
                     [ 2.67411184E+01,  4.44003661E-02, -1.54835680E-05,
                       2.80861775E-09, -2.01631064E-13,  2.49892981E+04,
                      -1.13168941E+02])))

species(name=u'S(441)',
        atoms='H:15 C:12',
        thermo=(NASA([100.00, 989.74],
                     [-1.06920106E+00,  8.65061190E-02,  1.75663536E-05,
                      -8.13090760E-08,  3.63222951E-11,  3.19614090E+04,
                       3.90682869E+01]),
                NASA([989.74, 5000.00],
                     [ 2.18995972E+01,  5.23509098E-02, -1.95909391E-05,
                       3.61476272E-09, -2.57905034E-13,  2.45410598E+04,
                      -8.60235913E+01])))

species(name=u'S(463)',
        atoms='H:15 C:12',
        thermo=(NASA([100.00, 984.37],
                     [-5.37896420E-01,  6.91571916E-02,  6.78331849E-05,
                      -1.32481351E-07,  5.38778566E-11,  3.40474077E+04,
                       3.25829999E+01]),
                NASA([984.37, 5000.00],
                     [ 2.21119676E+01,  5.17760824E-02, -1.94438000E-05,
                       3.67256768E-09, -2.68128755E-13,  2.59711429E+04,
                      -9.47052603E+01])))

species(name=u'S(501)',
        atoms='H:16 C:12',
        thermo=(NASA([100.00, 992.60],
                     [-2.02051020E+00,  1.08734835E-01, -2.89711942E-05,
                      -4.32763322E-08,  2.51062468E-11,  1.92512215E+04,
                       3.85793690E+01]),
                NASA([992.60, 5000.00],
                     [ 2.62576693E+01,  4.80482550E-02, -1.77622499E-05,
                       3.26163402E-09, -2.32284753E-13,  1.10132322E+04,
                      -1.10855289E+02])))

species(name=u'S(722)',
        atoms='H:15 C:12',
        thermo=(NASA([100.00, 992.27],
                     [-1.38340081E+00,  8.84602237E-02,  3.06336545E-05,
                      -1.02014839E-07,  4.45162985E-11,  3.06168321E+04,
                       3.52683180E+01]),
                NASA([992.27, 5000.00],
                     [ 2.55878851E+01,  5.06718152E-02, -1.94766159E-05,
                       3.69864365E-09, -2.69824719E-13,  2.17720278E+04,
                      -1.12240478E+02])))

species(name=u'S(802)',
        atoms='H:16 C:12',
        thermo=(NASA([100.00, 1013.91],
                     [-1.68456148E+00,  9.75829838E-02,  6.75024727E-06,
                      -7.54669033E-08,  3.43459639E-11,  1.64263299E+04,
                       3.47931908E+01]),
                NASA([1013.91, 5000.00],
                     [ 2.51858810E+01,  5.41893443E-02, -2.16834289E-05,
                       4.13524866E-09, -2.99152202E-13,  7.75908379E+03,
                      -1.11083545E+02])))

species(name=u'S(936)',
        atoms='H:13 C:10',
        thermo=(NASA([100.00, 976.25],
                     [ 2.44850415E-02,  5.63859714E-02,  7.92794649E-05,
                      -1.41928102E-07,  5.74393116E-11,  2.04708984E+04,
                       2.81369127E+01]),
                NASA([976.25, 5000.00],
                     [ 2.23687210E+01,  4.13694852E-02, -1.52419740E-05,
                       2.92184710E-09, -2.18042141E-13,  1.24610288E+04,
                      -9.78033799E+01])))

species(name=u'S(1040)',
        atoms='H:15 C:12',
        thermo=(NASA([100.00, 942.04],
                     [-1.58947506E+00,  9.96790343E-02, -9.80779895E-06,
                      -6.55996910E-08,  3.51324607E-11,  3.07361694E+04,
                       4.09976334E+01]),
                NASA([942.04, 5000.00],
                     [ 2.50044823E+01,  4.44935724E-02, -1.38685304E-05,
                       2.33330510E-09, -1.61367813E-13,  2.31638486E+04,
                      -9.93121534E+01])))

species(name=u'S(1078)',
        atoms='H:15 C:12',
        thermo=(NASA([100.00, 969.72],
                     [-1.17559632E+00,  7.67573889E-02,  7.48997522E-05,
                      -1.56119878E-07,  6.57729864E-11,  2.81287708E+04,
                       3.51645448E+01]),
                NASA([969.72, 5000.00],
                     [ 2.88356654E+01,  4.40916052E-02, -1.55324930E-05,
                       2.95988551E-09, -2.22757197E-13,  1.80236697E+04,
                      -1.30791674E+02])))

species(name=u'S(1130)',
        atoms='H:16 C:12',
        thermo=(NASA([100.00, 1013.91],
                     [-1.68456148E+00,  9.75829838E-02,  6.75024727E-06,
                      -7.54669033E-08,  3.43459639E-11,  1.64263299E+04,
                       3.47931908E+01]),
                NASA([1013.91, 5000.00],
                     [ 2.51858810E+01,  5.41893443E-02, -2.16834289E-05,
                       4.13524866E-09, -2.99152202E-13,  7.75908379E+03,
                      -1.11083545E+02])))

species(name=u'S(1375)',
        atoms='H:16 C:12',
        thermo=(NASA([100.00, 1013.91],
                     [-1.68456148E+00,  9.75829838E-02,  6.75024727E-06,
                      -7.54669033E-08,  3.43459639E-11,  1.64263299E+04,
                       3.41000436E+01]),
                NASA([1013.91, 5000.00],
                     [ 2.51858810E+01,  5.41893443E-02, -2.16834289E-05,
                       4.13524866E-09, -2.99152202E-13,  7.75908379E+03,
                      -1.11776692E+02])))

species(name=u'S(1511)',
        atoms='H:10 C:7',
        thermo=(NASA([100.00, 1013.93],
                     [ 1.13620462E+00,  5.07839825E-02,  1.86857674E-06,
                      -3.40292091E-08,  1.53985393E-11,  1.56009780E+04,
                       2.31184760E+01]),
                NASA([1013.93, 5000.00],
                     [ 1.25606010E+01,  3.32052103E-02, -1.27956037E-05,
                       2.35356470E-09, -1.65606655E-13,  1.18711633E+04,
                      -3.91241510E+01])))

species(name=u'S(1529)',
        atoms='H:16 C:12',
        thermo=(NASA([100.00, 992.60],
                     [-2.02051020E+00,  1.08734835E-01, -2.89711942E-05,
                      -4.32763322E-08,  2.51062468E-11,  1.92512215E+04,
                       3.85793690E+01]),
                NASA([992.60, 5000.00],
                     [ 2.62576693E+01,  4.80482550E-02, -1.77622499E-05,
                       3.26163402E-09, -2.32284753E-13,  1.10132322E+04,
                      -1.10855289E+02])))

species(name=u'S(1648)',
        atoms='H:16 C:12',
        thermo=(NASA([100.00, 969.04],
                     [-1.95478964E+00,  1.02453263E-01, -8.56095212E-07,
                      -7.95139997E-08,  3.97379461E-11,  1.69217225E+04,
                       4.01869367E+01]),
                NASA([969.04, 5000.00],
                     [ 2.88554636E+01,  4.34086299E-02, -1.49263754E-05,
                       2.72412982E-09, -1.97713674E-13,  7.75146213E+03,
                      -1.23991791E+02])))

species(name=u'S(1727)',
        atoms='H:16 C:12',
        thermo=(NASA([100.00, 998.05],
                     [-1.52430887E+00,  9.66762025E-02, -1.33829094E-06,
                      -6.57485316E-08,  3.14332499E-11,  1.79065710E+04,
                       3.87629342E+01]),
                NASA([998.05, 5000.00],
                     [ 2.38129637E+01,  5.20255394E-02, -1.97432462E-05,
                       3.66493029E-09, -2.61866606E-13,  1.00152729E+04,
                      -9.76216451E+01])))

species(name=u'S(2027)',
        atoms='H:16 C:12',
        thermo=(NASA([100.00, 1004.93],
                     [-1.86953211E+00,  1.06206677E-01, -2.64820787E-05,
                      -4.17090881E-08,  2.34551360E-11,  1.81015856E+04,
                       3.84629587E+01]),
                NASA([1004.93, 5000.00],
                     [ 2.47180269E+01,  5.08962835E-02, -1.93288938E-05,
                       3.56914595E-09, -2.53442808E-13,  1.02069855E+04,
                      -1.02629192E+02])))

species(name=u'S(2102)',
        atoms='H:16 C:12',
        thermo=(NASA([100.00, 1108.78],
                     [-1.83403471E+00,  1.10604735E-01, -5.48291523E-05,
                      -1.04446456E-09,  6.40255852E-12,  2.08564239E+04,
                       3.83969645E+01]),
                NASA([1108.78, 5000.00],
                     [ 2.13248215E+01,  5.70740339E-02, -2.30179773E-05,
                       4.24412032E-09, -2.94864290E-13,  1.38756972E+04,
                      -8.40429558E+01])))

species(name=u'S(2103)',
        atoms='H:16 C:12',
        thermo=(NASA([100.00, 994.24],
                     [-8.77714614E-01,  7.95766680E-02,  4.12622924E-05,
                      -1.04567943E-07,  4.37919587E-11,  2.13635169E+04,
                       3.87779820E+01]),
                NASA([994.24, 5000.00],
                     [ 2.16952477E+01,  5.47829300E-02, -2.09375569E-05,
                       3.92775475E-09, -2.83126795E-13,  1.36117993E+04,
                      -8.64033165E+01])))

species(name=u'S(2499)',
        atoms='H:12 C:9',
        thermo=(NASA([100.00, 979.99],
                     [ 1.39573100E-01,  6.40068822E-02,  2.02552262E-05,
                      -7.22435100E-08,  3.21451983E-11,  1.74655172E+04,
                       2.75901822E+01]),
                NASA([979.99, 5000.00],
                     [ 1.93044996E+01,  3.57565133E-02, -1.29966262E-05,
                       2.41345358E-09, -1.74892587E-13,  1.13095012E+04,
                      -7.67257785E+01])))

species(name=u'S(2708)',
        atoms='H:12 C:9',
        thermo=(NASA([100.00, 1012.48],
                     [ 5.54987535E-02,  7.06483940E-02, -8.23935034E-06,
                      -3.66920719E-08,  1.81701563E-11,  2.55809457E+04,
                       3.26556890E+01]),
                NASA([1012.48, 5000.00],
                     [ 1.69541337E+01,  3.96439259E-02, -1.52799252E-05,
                       2.82437176E-09, -1.99811965E-13,  2.03262856E+04,
                      -5.81308461E+01])))

species(name=u'S(2960)',
        atoms='H:16 C:12',
        thermo=(NASA([100.00, 1008.15],
                     [-1.13013912E+00,  8.32461418E-02,  4.23395774E-05,
                      -1.07614948E-07,  4.45340280E-11,  1.48357924E+04,
                       3.37633603E+01]),
                NASA([1008.15, 5000.00],
                     [ 2.31133654E+01,  5.70618205E-02, -2.28606258E-05,
                       4.37819002E-09, -3.18052539E-13,  6.38998122E+03,
                      -1.01038439E+02])))

species(name=u'S(3047)',
        atoms='H:16 C:12',
        thermo=(NASA([100.00, 977.66],
                     [-1.13116632E+00,  7.64257364E-02,  7.73476224E-05,
                      -1.54971446E-07,  6.41081419E-11,  1.58704063E+04,
                       3.13782113E+01]),
                NASA([977.66, 5000.00],
                     [ 2.72045742E+01,  4.96262952E-02, -1.82897198E-05,
                       3.49685921E-09, -2.60175578E-13,  6.07008191E+03,
                      -1.26470732E+02])))

species(name=u'S(3052)',
        atoms='H:16 C:12',
        thermo=(NASA([100.00, 933.87],
                     [-1.78445418E-01,  5.02885530E-02,  1.42005662E-04,
                      -2.28043678E-07,  9.38997204E-11,  2.62674558E+04,
                       3.56634568E+01]),
                NASA([933.87, 5000.00],
                     [ 2.73942400E+01,  3.82824481E-02, -9.12066566E-06,
                       1.49334021E-09, -1.14528056E-13,  1.64912551E+04,
                      -1.20242029E+02])))

species(name=u'X(1)',
        atoms='X:1',
        thermo=(NASA([100.00, 1554.80],
                     [ 7.10139498E-03, -4.25619522E-05,  8.98533016E-08,
                      -7.80193649E-11,  2.32465471E-14, -8.76101712E-01,
                      -3.11211229E-02]),
                NASA([1554.80, 5000.00],
                     [ 1.60299900E-01, -2.52235409E-04,  1.14181275E-07,
                      -1.21471653E-11,  3.85790025E-16, -7.08100885E+01,
                      -9.09527530E-01])))

species(name=u'HX(5)',
        atoms='H:1 X:1',
        thermo=(NASA([100.00, 952.91],
                     [-3.80965452E-01,  5.47228709E-03,  2.60912778E-06,
                      -9.64961980E-09,  4.63946753E-12, -3.62029043E+03,
                       1.01725550E+00]),
                NASA([952.91, 5000.00],
                     [ 2.80339655E+00, -5.41047017E-04,  4.99507978E-07,
                      -7.54963647E-11,  3.06772366E-15, -4.56103985E+03,
                      -1.59436787E+01])))

species(name=u'C2H3X(37)',
        atoms='H:3 C:2 X:1',
        thermo=(NASA([100.00, 928.62],
                     [ 3.83091018E+00, -8.76381562E-03,  6.97956896E-05,
                      -8.67969174E-08,  3.33218121E-11,  1.10289552E+04,
                      -1.81151753E+01]),
                NASA([928.62, 5000.00],
                     [ 8.78054562E+00,  1.92497720E-03,  8.25825014E-07,
                      -1.63749818E-10,  5.71728318E-15,  8.72955203E+03,
                      -4.90588618E+01])))

species(name=u'C4H5X(80)',
        atoms='H:5 C:4 X:1',
        thermo=(NASA([100.00, 936.52],
                     [ 2.68471723E+00,  1.36244496E-02,  5.32591849E-05,
                      -8.32912448E-08,  3.41499374E-11,  1.31221853E+04,
                      -1.06510487E+01]),
                NASA([936.52, 5000.00],
                     [ 1.29012266E+01,  8.96921861E-03, -1.71920076E-06,
                       2.89744517E-10, -2.58686364E-14,  9.49914640E+03,
                      -6.83963397E+01])))

species(name=u'C4H5X(81)',
        atoms='H:5 C:4 X:1',
        thermo=(NASA([100.00, 928.63],
                     [ 2.64232495E+00,  8.31109593E-03,  8.12146261E-05,
                      -1.21398701E-07,  4.98630759E-11,  1.83050941E+04,
                      -1.03932963E+01]),
                NASA([928.63, 5000.00],
                     [ 1.69490474E+01,  2.00818812E-03,  2.03468841E-06,
                      -4.02657023E-10,  1.85400094E-14,  1.32625997E+04,
                      -9.11990785E+01])))

species(name=u'C6H7X(143)',
        atoms='H:7 C:6 X:1',
        thermo=(NASA([100.00, 945.31],
                     [ 1.76545134E+00,  3.00643386E-02,  5.04823806E-05,
                      -9.18356912E-08,  3.86710488E-11,  2.62047300E+04,
                      -4.22047906E+00]),
                NASA([945.31, 5000.00],
                     [ 1.62876414E+01,  1.66989483E-02, -4.60790511E-06,
                       8.23797195E-10, -6.40998588E-14,  2.13106973E+04,
                      -8.48285150E+01])))

species(name=u'SX(337)',
        atoms='H:15 C:12 X:1',
        thermo=(NASA([100.00, 987.58],
                     [-9.53673816E-01,  6.94567418E-02,  9.89953662E-05,
                      -1.75789719E-07,  7.03673048E-11,  2.22712236E+04,
                       1.65075881E+01]),
                NASA([987.58, 5000.00],
                     [ 2.75829861E+01,  5.08329941E-02, -1.99853220E-05,
                       3.94206265E-09, -2.96893311E-13,  1.19065606E+04,
                      -1.44747128E+02])))

species(name=u'SX(338)',
        atoms='H:15 C:12 X:1',
        thermo=(NASA([100.00, 979.08],
                     [-1.33399033E+00,  8.15327144E-02,  6.10796305E-05,
                      -1.40544064E-07,  5.96430299E-11,  2.63152214E+04,
                       1.53202014E+01]),
                NASA([979.08, 5000.00],
                     [ 2.88000583E+01,  4.54039529E-02, -1.68327432E-05,
                       3.24878532E-09, -2.43575828E-13,  1.62454492E+04,
                      -1.50712786E+02])))

species(name=u'SX(340)',
        atoms='H:15 C:12 X:1',
        thermo=(NASA([100.00, 975.90],
                     [-1.51414519E+00,  8.61139252E-02,  4.96902414E-05,
                      -1.31247290E-07,  5.71155160E-11,  2.60123068E+04,
                       1.54842336E+01]),
                NASA([975.90, 5000.00],
                     [ 2.97270467E+01,  4.33700161E-02, -1.57320116E-05,
                       3.01842347E-09, -2.26501124E-13,  1.58524545E+04,
                      -1.55286980E+02])))

species(name=u'SX(341)',
        atoms='H:15 C:12 X:1',
        thermo=(NASA([100.00, 975.90],
                     [-1.51414519E+00,  8.61139252E-02,  4.96902414E-05,
                      -1.31247290E-07,  5.71155160E-11,  2.60123068E+04,
                       1.54842336E+01]),
                NASA([975.90, 5000.00],
                     [ 2.97270467E+01,  4.33700161E-02, -1.57320116E-05,
                       3.01842347E-09, -2.26501124E-13,  1.58524545E+04,
                      -1.55286980E+02])))

species(name=u'SX(342)',
        atoms='H:15 C:12 X:1',
        thermo=(NASA([100.00, 970.41],
                     [-1.56569509E+00,  8.81414876E-02,  4.50605462E-05,
                      -1.27176203E-07,  5.60968067E-11,  2.13413183E+04,
                       1.47918280E+01]),
                NASA([970.41, 5000.00],
                     [ 2.93698510E+01,  4.39659324E-02, -1.54771168E-05,
                       2.91255684E-09, -2.16617391E-13,  1.14132484E+04,
                      -1.53743548E+02])))

species(name=u'SX(343)',
        atoms='H:15 C:12 X:1',
        thermo=(NASA([100.00, 970.72],
                     [-1.55417774E+00,  8.50306529E-02,  5.78320529E-05,
                      -1.43136626E-07,  6.21619029E-11,  2.71286656E+04,
                       1.55571823E+01]),
                NASA([970.72, 5000.00],
                     [ 3.11250979E+01,  4.10896422E-02, -1.44501156E-05,
                       2.77759506E-09, -2.10876373E-13,  1.65099340E+04,
                      -1.63146059E+02])))

species(name=u'SX(344)',
        atoms='H:15 C:12 X:1',
        thermo=(NASA([100.00, 970.72],
                     [-1.55417774E+00,  8.50306529E-02,  5.78320529E-05,
                      -1.43136626E-07,  6.21619029E-11,  2.71286656E+04,
                       1.55571823E+01]),
                NASA([970.72, 5000.00],
                     [ 3.11250979E+01,  4.10896422E-02, -1.44501156E-05,
                       2.77759506E-09, -2.10876373E-13,  1.65099340E+04,
                      -1.63146059E+02])))

species(name=u'SX(372)',
        atoms='H:15 C:12 X:1',
        thermo=(NASA([100.00, 964.56],
                     [-1.75671250E+00,  9.66647298E-02,  1.57481005E-05,