units(length='cm', time='s', quantity='mol', act_energy='kcal/mol')

ideal_gas(name='gas',
          elements="H D T C Ci O Oi N Ne Ar He Si S Cl X",
          species="""n-heptane   Ar          He          Ne
                     N2          C2H4(2)     C4H8-1(3)   C4H8-2(4)
                     C4H6(7)     C6H8(9)     H2(68)      S(181)
                     S(185)      S(244)      S(264)      C6H10(624)
                     C8H12(625)  C5H8c(793)  S(1203)     S(1409)
                     S(1472)     C7H8(1859)  CH4(2135)   C2H6(2188)
                     C4H8(2427)""",
          reactions='gas-*',
          initial_state=state(temperature=300.0, pressure=OneAtm))

ideal_interface(name='surface1',
                elements="H D T C Ci O Oi N Ne Ar He Si S Cl X",
                species="""X(1)        HX(5)       C2H3X(37)   CH3X(39)
                          C2H5X(40)   C4H7X(41)   C4H7X(42)   C4H7X(43)
                          C4H7X(44)   C4H5X(80)   C4H5X(81)   C6H9X(98)
                          C6H7X(132)  C6H7X(133)  C6H7X(134)  C6H9X(159)
                          C6H9X(192)  SX(313)     C6H7X(327)  SX(452)
                          SX(454)     SX(455)     SX(457)     SX(458)
                          SX(460)     SX(462)     SX(463)     SX(465)
                          SX(586)     SX(587)     SX(588)     SX(590)
                          SX(592)     SX(595)     SX(597)     SX(598)
                          C6H9X(615)  C5H7X(618)  C6H9X(798)  C6H9X(799)
                          C6H9X(800)  SX(1020)    SX(1049)    SX(1050)
                          SX(1051)    SX(1131)    SX(1169)    SX(1269)
                          SX(1270)    SX(1271)    SX(1272)    SX(1274)
                          SX(1379)    SX(1383)    SX(1384)    SX(1392)
                          SX(1396)    SX(1397)    SX(1402)    SX(1403)
                          SX(1734)    SX(1735)    SX(1741)    SX(1754)
                          SX(1755)    SX(1756)    SX(1807)    SX(1808)
                          SX(1812)    SX(1820)    SX(1821)    SX(1846)
                          SX(1848)    SX(1851)    SX(1911)    SX(1912)
                          SX(1916)    SX(2015)    SX(2054)    SX(2704)
                          SX(2705)    SX(2752)    SX(2773)    SX(2860)
                          SX(3317)    SX(3327)    SX(3328)    SX(3329)
                          SX(3335)    SX(3336)    SX(3337)    SX(3362)
                          SX(3375)    SX(3376)    SX(3486)    SX(3536)
                          SX(3838)    SX(3849)""",
                site_density=2.72e-09,
                phases="gas",
          reactions='surface1-*',
                initial_state=state(temperature=300.0, pressure=OneAtm))

#-------------------------------------------------------------------------------
# Element data
#-------------------------------------------------------------------------------

element(symbol=u'X', atomic_mass=195.083)
element(symbol=u'Ci', atomic_mass=13.003)
element(symbol=u'D', atomic_mass=2.014)
element(symbol=u'Oi', atomic_mass=18.0)
element(symbol=u'T', atomic_mass=3.016)
#-------------------------------------------------------------------------------
# Species data
#-------------------------------------------------------------------------------

species(name=u'n-heptane',
        atoms='H:16 C:7',
        thermo=(NASA([100.00, 1262.73],
                     [-2.91681405E-03,  7.69373649E-02, -3.48025563E-05,
                       1.86095180E-09,  2.01573617E-12, -2.57829342E+04,
                       3.00312148E+01]),
                NASA([1262.73, 5000.00],
                     [ 1.38377915E+01,  4.85945016E-02, -1.95474548E-05,
                       3.52837178E-09, -2.39064676E-13, -3.05141556E+04,
                      -4.48642836E+01])))

species(name=u'Ar',
        atoms='Ar:1',
        thermo=(NASA([200.00, 1000.00],
                     [ 2.50000000E+00,  0.00000000E+00,  0.00000000E+00,
                       0.00000000E+00,  0.00000000E+00, -7.45375000E+02,
                       4.37967000E+00]),
                NASA([1000.00, 6000.00],
                     [ 2.50000000E+00,  0.00000000E+00,  0.00000000E+00,
                       0.00000000E+00,  0.00000000E+00, -7.45375000E+02,
                       4.37967000E+00])))

species(name=u'He',
        atoms='He:1',
        thermo=(NASA([200.00, 1000.00],
                     [ 2.50000000E+00,  0.00000000E+00,  0.00000000E+00,
                       0.00000000E+00,  0.00000000E+00, -7.45375000E+02,
                       9.28724000E-01]),
                NASA([1000.00, 6000.00],
                     [ 2.50000000E+00,  0.00000000E+00,  0.00000000E+00,
                       0.00000000E+00,  0.00000000E+00, -7.45375000E+02,
                       9.28724000E-01])))

species(name=u'Ne',
        atoms='Ne:1',
        thermo=(NASA([200.00, 1000.00],
                     [ 2.50000000E+00,  0.00000000E+00,  0.00000000E+00,
                       0.00000000E+00,  0.00000000E+00, -7.45375000E+02,
                       3.35532000E+00]),
                NASA([1000.00, 6000.00],
                     [ 2.50000000E+00,  0.00000000E+00,  0.00000000E+00,
                       0.00000000E+00,  0.00000000E+00, -7.45375000E+02,
                       3.35532000E+00])))

species(name=u'N2',
        atoms='N:2',
        thermo=(NASA([200.00, 1000.00],
                     [ 3.53101000E+00, -1.23661000E-04, -5.02999000E-07,
                       2.43531000E-09, -1.40881000E-12, -1.04698000E+03,
                       2.96747000E+00]),
                NASA([1000.00, 6000.00],
                     [ 2.95258000E+00,  1.39690000E-03, -4.92632000E-07,
                       7.86010000E-11, -4.60755000E-15, -9.23949000E+02,
                       5.87189000E+00])))

species(name=u'C2H4(2)',
        atoms='H:4 C:2',
        thermo=(NASA([100.00, 979.36],
                     [ 3.97471606E+00, -4.75844285E-03,  4.16783770E-05,
                      -4.51392516E-08,  1.54224761E-11,  4.91540746E+03,
                       3.62430844E+00]),
                NASA([979.36, 5000.00],
                     [ 3.55660610E+00,  1.10627464E-02, -4.17019079E-06,
                       7.85586770E-10, -5.70060829E-14,  4.32046489E+03,
                       2.17719479E+00])))

species(name=u'C4H8-1(3)',
        atoms='H:8 C:4',
        thermo=(NASA([100.00, 1007.28],
                     [ 2.58772906E+00,  2.32777969E-02,  1.93412349E-05,
                      -3.55496333E-08,  1.36906009E-11, -1.91872926E+03,
                       1.45750618E+01]),
                NASA([1007.28, 5000.00],
                     [ 7.20517168E+00,  2.36361568E-02, -9.03150028E-06,
                       1.65392666E-09, -1.16019260E-13, -3.79733937E+03,
                      -1.24426257E+01])))

species(name=u'C4H8-2(4)',
        atoms='H:8 C:4',
        thermo=(NASA([100.00, 1157.79],
                     [ 2.51998327E+00,  2.76812799E-02,  9.43783469E-07,
                      -1.25009101E-08,  4.67144666E-12, -3.34374767E+03,
                       1.30195623E+01]),
                NASA([1157.79, 5000.00],
                     [ 6.04225708E+00,  2.60072350E-02, -1.04843374E-05,
                       1.90880922E-09, -1.30600505E-13, -4.86276511E+03,
                      -7.52715109E+00])))

species(name=u'C4H6(7)',
        atoms='H:6 C:4',
        thermo=(NASA([100.00, 946.05],
                     [ 2.80599310E+00,  1.02584471E-02,  6.17260255E-05,
                      -9.01642687E-08,  3.59116961E-11,  1.16584972E+04,
                       1.20621434E+01]),
                NASA([946.05, 5000.00],
                     [ 1.24693720E+01,  1.00553901E-02, -2.41206872E-06,
                       4.57077303E-10, -3.93160571E-14,  8.01077795E+03,
                      -4.36374720E+01])))

species(name=u'C6H8(9)',
        atoms='H:8 C:6',
        thermo=(NASA([100.00, 941.22],
                     [ 1.38427980E+00,  4.14411503E-02,  1.94287417E-05,
                      -6.16688700E-08,  2.86503633E-11,  1.76317461E+04,
                       1.93257509E+01]),
                NASA([941.22, 5000.00],
                     [ 1.69619680E+01,  1.57221707E-02, -4.10118367E-06,
                       6.95736344E-10, -5.26521484E-14,  1.29061672E+04,
                      -6.44097553E+01])))

species(name=u'H2(68)',
        atoms='H:2',
        thermo=(NASA([100.00, 1959.08],
                     [ 3.43536412E+00,  2.12710353E-04, -2.78625043E-07,
                       3.40267167E-10, -7.76031998E-14, -1.03135984E+03,
                      -3.90841732E+00]),
                NASA([1959.08, 5000.00],
                     [ 2.78816583E+00,  5.87640942E-04,  1.59010417E-07,
                      -5.52739026E-11,  4.34310984E-15, -5.96144270E+02,
                       1.12732655E-01])))

species(name=u'S(181)',
        atoms='H:16 C:12',
        thermo=(NASA([100.00, 985.43],
                     [-1.88304682E+00,  1.07042194E-01, -2.70554103E-05,
                      -4.30549514E-08,  2.47781880E-11,  4.00783494E+04,
                       4.74620913E+01]),
                NASA([985.43, 5000.00],
                     [ 2.44922294E+01,  5.06805346E-02, -1.84366585E-05,
                       3.32433721E-09, -2.33631810E-13,  3.24185269E+04,
                      -9.18863874E+01])))

species(name=u'S(185)',
        atoms='H:16 C:12',
        thermo=(NASA([100.00, 992.45],
                     [-1.36726188E+00,  9.09276671E-02,  1.69902518E-05,
                      -8.53947805E-08,  3.84301239E-11,  2.11993195E+04,
                       3.87738109E+01]),
                NASA([992.45, 5000.00],
                     [ 2.42201531E+01,  5.14040751E-02, -1.94056379E-05,
                       3.62910452E-09, -2.61722320E-13,  1.29880616E+04,
                      -1.00257920E+02])))

species(name=u'S(244)',
        atoms='H:16 C:12',
        thermo=(NASA([100.00, 1082.71],
                     [-1.42165646E+00,  1.00366054E-01, -2.86690015E-05,
                      -2.45430021E-08,  1.37134617E-11,  2.67269131E+04,
                       3.45501008E+01]),
                NASA([1082.71, 5000.00],
                     [ 1.94956582E+01,  6.02181764E-02, -2.44875026E-05,
                       4.55572743E-09, -3.18938634E-13,  2.00211421E+04,
                      -7.80762928E+01])))

species(name=u'S(264)',
        atoms='H:16 C:12',
        thermo=(NASA([100.00, 967.86],
                     [-1.32209228E+00,  8.47378361E-02,  4.59787499E-05,
                      -1.23781967E-07,  5.42497769E-11,  2.23199283E+04,
                       3.57020946E+01]),
                NASA([967.86, 5000.00],
                     [ 2.71811605E+01,  4.57697461E-02, -1.58000646E-05,
                       2.92345730E-09, -2.14846023E-13,  1.31102045E+04,
                      -1.19952912E+02])))

species(name=u'C6H10(624)',
        atoms='H:10 C:6',
        thermo=(NASA([100.00, 1020.63],
                     [ 9.97427413E-01,  5.59777045E-02, -2.05880600E-05,
                      -1.17182304E-08,  8.13452041E-12,  6.30749855E+03,
                       2.38941836E+01]),
                NASA([1020.63, 5000.00],
                     [ 1.33828218E+01,  2.83661253E-02, -1.07663110E-05,
                       1.95749020E-09, -1.36589418E-13,  2.68926840E+03,
                      -4.14511818E+01])))

species(name=u'C8H12(625)',
        atoms='H:12 C:8',
        thermo=(NASA([100.00, 1002.94],
                     [ 1.69489980E-02,  7.28189377E-02, -2.16585698E-05,
                      -2.40807783E-08,  1.44597041E-11,  1.38562447E+04,
                       3.07679077E+01]),
                NASA([1002.94, 5000.00],
                     [ 1.77276883E+01,  3.45993801E-02, -1.29781828E-05,
                       2.37500136E-09, -1.67643536E-13,  8.67334638E+03,
                      -6.28559377E+01])))

species(name=u'C5H8c(793)',
        atoms='H:8 C:5',
        thermo=(NASA([100.00, 1004.86],
                     [ 1.98273955E+00,  3.49998332E-02,  6.98515281E-06,
                      -3.05031334E-08,  1.32246652E-11,  6.96521034E+03,
                       1.60818191E+01]),
                NASA([1004.86, 5000.00],
                     [ 1.01246420E+01,  2.42323877E-02, -9.24886971E-06,
                       1.70115950E-09, -1.20059732E-13,  4.23624320E+03,
                      -2.86745770E+01])))

species(name=u'S(1203)',
        atoms='H:12 C:8',
        thermo=(NASA([100.00, 966.56],
                     [-1.28183216E-01,  7.35572918E-02, -1.44333618E-05,
                      -3.89698452E-08,  2.17299794E-11,  1.04422483E+04,
                       2.89601759E+01]),
                NASA([966.56, 5000.00],
                     [ 2.02785414E+01,  2.99584765E-02, -1.01704686E-05,
                       1.81720743E-09, -1.29537878E-13,  4.58909334E+03,
                      -7.86679341E+01])))

species(name=u'S(1409)',
        atoms='H:12 C:8',
        thermo=(NASA([100.00, 966.56],
                     [-1.28183216E-01,  7.35572918E-02, -1.44333618E-05,
                      -3.89698452E-08,  2.17299794E-11,  1.04422483E+04,
                       2.89601759E+01]),
                NASA([966.56, 5000.00],
                     [ 2.02785414E+01,  2.99584765E-02, -1.01704686E-05,
                       1.81720743E-09, -1.29537878E-13,  4.58909334E+03,
                      -7.86679341E+01])))

species(name=u'S(1472)',
        atoms='H:12 C:8',
        thermo=(NASA([100.00, 1086.85],
                     [ 4.16666707E-01,  6.71551541E-02, -2.11380215E-05,
                      -1.29841076E-08,  7.80074417E-12,  1.12931799E+04,
                       2.75110729E+01]),
                NASA([1086.85, 5000.00],
                     [ 1.33702771E+01,  4.16858848E-02, -1.66324643E-05,
                       3.04995240E-09, -2.11355555E-13,  7.16599721E+03,
                      -4.20947236E+01])))

species(name=u'C7H8(1859)',
        atoms='H:8 C:7',
        thermo=(NASA([100.00, 966.81],
                     [ 1.90138903E+00,  2.67868079E-02,  6.30523366E-05,
                      -9.95224287E-08,  3.94205761E-11,  1.54781489E+04,
                       1.80530900E+01]),
                NASA([966.81, 5000.00],
                     [ 1.41488720E+01,  2.45164605E-02, -8.51969957E-06,
                       1.61189695E-09, -1.20790154E-13,  1.08478608E+04,
                      -5.23192761E+01])))

species(name=u'CH4(2135)',
        atoms='H:4 C:1',
        thermo=(NASA([100.00, 1084.12],
                     [ 4.20541524E+00, -5.35557362E-03,  2.51123265E-05,
                      -2.13762843E-08,  5.97523937E-12, -1.01619433E+04,
                      -9.21279283E-01]),
                NASA([1084.12, 5000.00],
                     [ 9.08265721E-01,  1.14540858E-02, -4.57173828E-06,
                       8.29191671E-10, -5.66314895E-14, -9.71997444E+03,
                       1.39930944E+01])))

species(name=u'C2H6(2188)',
        atoms='H:6 C:2',
        thermo=(NASA([100.00, 1012.42],
                     [ 3.72239291E+00,  1.65083841E-03,  3.44175530E-05,
                      -3.76858229E-08,  1.24450657E-11, -1.15575901E+04,
                       4.68247999E+00]),
                NASA([1012.42, 5000.00],
                     [ 2.82848257E+00,  1.73040568E-02, -6.73334245E-06,
                       1.23742024E-09, -8.65676410E-14, -1.19978080E+04,
                       5.93811707E+00])))

species(name=u'C4H8(2427)',
        atoms='H:8 C:4',
        thermo=(NASA([100.00, 1061.33],
                     [ 2.52504770E+00,  2.64752782E-02,  7.08359238E-06,
                      -2.07731462E-08,  8.00430055E-12, -4.02607130E+03,
                       1.28857274E+01]),
                NASA([1061.33, 5000.00],
                     [ 6.48672669E+00,  2.49943921E-02, -9.83283171E-06,
                       1.79343299E-09, -1.24008235E-13, -5.62452310E+03,
                      -1.00316397E+01])))

species(name=u'X(1)',
        atoms='X:1',
        thermo=(NASA([100.00, 1554.80],
                     [ 7.10139498E-03, -4.25619522E-05,  8.98533016E-08,
                      -7.80193649E-11,  2.32465471E-14, -8.76101712E-01,
                      -3.11211229E-02]),
                NASA([1554.80, 5000.00],
                     [ 1.60299900E-01, -2.52235409E-04,  1.14181275E-07,
                      -1.21471653E-11,  3.85790025E-16, -7.08100885E+01,
                      -9.09527530E-01])))

species(name=u'HX(5)',
        atoms='H:1 X:1',
        thermo=(NASA([100.00, 952.91],
                     [-3.80965452E-01,  5.47228709E-03,  2.60912778E-06,
                      -9.64961980E-09,  4.63946753E-12, -3.62029043E+03,
                       1.01725550E+00]),
                NASA([952.91, 5000.00],
                     [ 2.80339655E+00, -5.41047017E-04,  4.99507978E-07,
                      -7.54963647E-11,  3.06772366E-15, -4.56103985E+03,
                      -1.59436787E+01])))

species(name=u'C2H3X(37)',
        atoms='H:3 C:2 X:1',
        thermo=(NASA([100.00, 928.62],
                     [ 3.83091018E+00, -8.76381562E-03,  6.97956896E-05,
                      -8.67969174E-08,  3.33218121E-11,  3.77613875E+03,
                      -1.81151753E+01]),
                NASA([928.62, 5000.00],
                     [ 8.78054562E+00,  1.92497720E-03,  8.25825014E-07,
                      -1.63749818E-10,  5.71728318E-15,  1.47673562E+03,
                      -4.90588618E+01])))

species(name=u'CH3X(39)',
        atoms='H:3 C:1 X:1',
        thermo=(NASA([100.00, 848.30],
                     [-1.21090496E+00,  2.92390681E-02, -4.49011079E-05,
                       3.86009808E-08, -1.30361041E-11, -3.94437789E+03,
                       6.80939750E+00]),
                NASA([848.30, 5000.00],
                     [ 1.62290877E+00,  1.12987268E-02, -5.08316908E-06,
                       9.46833581E-10, -6.42885536E-14, -4.26044280E+03,
                      -5.42501059E+00])))

species(name=u'C2H5X(40)',
        atoms='H:5 C:2 X:1',
        thermo=(NASA([100.00, 803.81],
                     [-1.64625424E+00,  3.89626488E-02, -4.31128887E-05,
                       2.97076939E-08, -8.80222915E-12, -7.92805291E+03,
                       9.27323637E+00]),
                NASA([803.81, 5000.00],
                     [ 1.97598112E+00,  2.09382766E-02, -9.47916922E-06,
                       1.81392948E-09, -1.27206354E-13, -8.51040169E+03,
                      -7.41107956E+00])))

species(name=u'C4H7X(41)',
        atoms='H:7 C:4 X:1',
        thermo=(NASA([100.00, 971.02],
                     [ 2.64365035E+00,  1.79007589E-02,  4.24443189E-05,
                      -6.44028479E-08,  2.49593993E-11, -3.72240882E+03,
                      -6.69991651E+00]),
                NASA([971.02, 5000.00],
                     [ 9.25871667E+00,  2.04064152E-02, -7.39143670E-06,
                       1.37021231E-09, -9.94133357E-14, -6.40989294E+03,
                      -4.56426102E+01])))

species(name=u'C4H7X(42)',
        atoms='H:7 C:4 X:1',
        thermo=(NASA([100.00, 986.67],
                     [ 2.45798205E+00,  2.47217336E-02,  2.01285964E-05,
                      -4.02735564E-08,  1.62485845E-11,  4.67977823E+03,
                      -5.12991781E+00]),
                NASA([986.67, 5000.00],
                     [ 8.87898065E+00,  2.09043993E-02, -7.83851223E-06,
                       1.44076477E-09, -1.02346878E-13,  2.33142212E+03,
                      -4.15007572E+01])))

species(name=u'C4H7X(43)',
        atoms='H:7 C:4 X:1',
        thermo=(NASA([100.00, 965.06],
                     [ 2.56877619E+00,  1.97500674E-02,  3.72961301E-05,
                      -6.04017092E-08,  2.39989018E-11, -3.99382968E+03,
                      -8.56564322E+00]),
                NASA([965.06, 5000.00],
                     [ 9.89778724E+00,  1.86142959E-02, -6.38884453E-06,
                       1.17309353E-09, -8.55406646E-14, -6.77012088E+03,
                      -5.07182348E+01])))

species(name=u'C4H7X(44)',
        atoms='H:7 C:4 X:1',
        thermo=(NASA([100.00, 949.35],
                     [ 2.54254539E+00,  1.77389010E-02,  4.93877612E-05,
                      -7.72878178E-08,  3.10660019E-11, -2.76819637E+03,
                      -8.46783968E+00]),
                NASA([949.35, 5000.00],
                     [ 1.15220223E+01,  1.60005944E-02, -4.89823595E-06,
                       8.83972924E-10, -6.63710570E-14, -6.09972871E+03,
                      -5.98888028E+01])))

species(name=u'C4H5X(80)',
        atoms='H:5 C:4 X:1',
        thermo=(NASA([100.00, 936.52],
                     [ 2.68471723E+00,  1.36244496E-02,  5.32591849E-05,
                      -8.32912448E-08,  3.41499374E-11,  5.86936893E+03,
                      -1.06510487E+01]),
                NASA([936.52, 5000.00],
                     [ 1.29012266E+01,  8.96921861E-03, -1.71920076E-06,
                       2.89744517E-10, -2.58686364E-14,  2.24632999E+03,
                      -6.83963397E+01])))

species(name=u'C4H5X(81)',
        atoms='H:5 C:4 X:1',
        thermo=(NASA([100.00, 928.63],
                     [ 2.64232495E+00,  8.31109593E-03,  8.12146261E-05,
                      -1.21398701E-07,  4.98630759E-11,  1.10522777E+04,
                      -1.03932963E+01]),
                NASA([928.63, 5000.00],
                     [ 1.69490474E+01,  2.00818812E-03,  2.03468841E-06,
                      -4.02657023E-10,  1.85400094E-14,  6.00978331E+03,
                      -9.11990785E+01])))

species(name=u'C6H9X(98)',
        atoms='H:9 C:6 X:1',
        thermo=(NASA([100.00, 959.61],
                     [ 9.97316280E-01,  5.45668000E-02, -1.20062319E-05,
                      -2.57197904E-08,  1.47243152E-11,  1.30766376E+04,
                       4.10405037E+00]),
                NASA([959.61, 5000.00],
                     [ 1.47073597E+01,  2.48050721E-02, -8.29407345E-06,
                       1.44239761E-09, -1.00346470E-13,  9.18443716E+03,
                      -6.80438434E+01])))

species(name=u'C6H7X(132)',
        atoms='H:7 C:6 X:1',
        thermo=(NASA([100.00, 921.05],
                     [ 1.31110668E+00,  3.98923999E-02,  3.32232523E-05,
                      -8.35252706E-08,  3.86326964E-11,  1.08862649E+04,
                      -3.79723913E+00]),
                NASA([921.05, 5000.00],
                     [ 1.94238968E+01,  1.10879295E-02, -1.06296587E-06,
                       6.28490794E-11, -7.95124353E-15,  5.43495432E+03,
                      -1.01171530E+02])))

species(name=u'C6H7X(133)',
        atoms='H:7 C:6 X:1',
        thermo=(NASA([100.00, 937.50],
                     [ 1.68534221E+00,  3.10727778E-02,  5.20803235E-05,
                      -9.63157959E-08,  4.10725203E-11,  7.48645055E+03,
                      -3.14968750E+00]),
                NASA([937.50, 5000.00],
                     [ 1.71062754E+01,  1.56096156E-02, -3.71084904E-06,
                       6.25093623E-10, -4.95751867E-14,  2.38312645E+03,
                      -8.83483066E+01])))

species(name=u'C6H7X(134)',
        atoms='H:7 C:6 X:1',
        thermo=(NASA([100.00, 928.32],
                     [ 1.31534700E+00,  3.68783497E-02,  4.55986092E-05,
                      -9.88753118E-08,  4.43878511E-11,  1.66739201E+04,
                      -3.00645212E+00]),
                NASA([928.32, 5000.00],
                     [ 2.11711681E+01,  8.22309015E-03, -4.16967724E-08,
                      -7.09091221E-11, -2.30067666E-15,  1.05356411E+04,
                      -1.10527915E+02])))

species(name=u'C6H9X(159)',
        atoms='H:9 C:6 X:1',
        thermo=(NASA([100.00, 977.39],
                     [ 1.58497019E+00,  3.64531117E-02,  3.83857498E-05,
                      -7.37833857E-08,  3.01369761E-11, -1.49213565E+03,
                       1.74561957E+00]),
                NASA([977.39, 5000.00],
                     [ 1.38452347E+01,  2.70863641E-02, -9.86817345E-06,
                       1.84854634E-09, -1.35051249E-13, -5.83796567E+03,
                      -6.70942181E+01])))

species(name=u'C6H9X(192)',
        atoms='H:9 C:6 X:1',
        thermo=(NASA([100.00, 995.64],
                     [ 1.00158150E+00,  5.37831764E-02, -1.05077719E-05,
                      -2.52898569E-08,  1.36194364E-11,  1.25541444E+04,
                       4.73928304E+00]),
                NASA([995.64, 5000.00],
                     [ 1.48279675E+01,  2.56881420E-02, -9.53965888E-06,
                       1.75504791E-09, -1.24935257E-13,  8.44021945E+03,
                      -6.87379050E+01])))

species(name=u'SX(313)',
        atoms='H:11 C:8 X:1',
        thermo=(NASA([100.00, 958.98],
                     [-1.29640856E-01,  7.13781345E-02, -4.26954811E-06,
                      -5.28292768E-08,  2.74187184E-11,  1.66896187E+04,
                       9.83109352E+00]),
                NASA([958.98, 5000.00],
                     [ 2.17339898E+01,  2.72641222E-02, -8.91149767E-06,
                       1.59376980E-09, -1.15609653E-13,  1.03313778E+04,
                      -1.06020000E+02])))

species(name=u'C6H7X(327)',
        atoms='H:7 C:6 X:1',
        thermo=(NASA([100.00, 945.31],
                     [ 1.76545134E+00,  3.00643386E-02,  5.04823806E-05,
                      -9.18356912E-08,  3.86710488E-11,  1.89519136E+04,
                      -4.22047906E+00]),
                NASA([945.31, 5000.00],
                     [ 1.62876414E+01,  1.66989483E-02, -4.60790511E-06,
                       8.23797195E-10, -6.40998588E-14,  1.40578809E+04,
                      -8.48285150E+01])))

species(name=u'SX(452)',
        atoms='H:15 C:12 X:1',
        thermo=(NASA([100.00, 998.97],
                     [-8.99471708E-01,  7.61906300E-02,  6.22755405E-05,
                      -1.28403241E-07,  5.19561596E-11,  1.49524634E+04,
                       1.70460900E+01]),
                NASA([998.97, 5000.00],
                     [ 2.29677772E+01,  5.66231660E-02, -2.24612172E-05,
                       4.30391511E-09, -3.14023333E-13,  6.39178006E+03,
                      -1.17055355E+02])))

species(name=u'SX(454)',
        atoms='H:15 C:12 X:1',
        thermo=(NASA([100.00, 984.86],
                     [-1.25415917E+00,  8.14723399E-02,  5.99670849E-05,
                      -1.35047832E-07,  5.65263335E-11,  1.23640232E+04,
                       1.50885788E+01]),
                NASA([984.86, 5000.00],
                     [ 2.64955777E+01,  5.12028157E-02, -1.94857584E-05,
                       3.72553762E-09, -2.74703249E-13,  2.90019348E+03,
                      -1.38661398E+02])))

species(name=u'SX(455)',
        atoms='H:15 C:12 X:1',
        thermo=(NASA([100.00, 997.04],
                     [-1.22047231E+00,  8.68484986E-02,  2.60827202E-05,
                      -9.32243731E-08,  4.06496059E-11,  2.61525394E+04,
                       1.98829986E+01]),
                NASA([997.04, 5000.00],
                     [ 2.39598117E+01,  5.16453034E-02, -1.99734851E-05,
                       3.77822022E-09, -2.73872604E-13,  1.78599688E+04,
                      -1.17928271E+02])))

species(name=u'SX(457)',
        atoms='H:15 C:12 X:1',
        thermo=(NASA([100.00, 976.31],
                     [-1.37882584E+00,  8.72729725E-02,  3.54645112E-05,
                      -1.10989729E-07,  4.90790319E-11,  1.91243778E+04,
                       1.56116669E+01]),
                NASA([976.31, 5000.00],
                     [ 2.68030035E+01,  4.65647436E-02, -1.68432173E-05,
                       3.15349492E-09, -2.31121478E-13,  1.00587909E+04,
                      -1.37919629E+02])))

species(name=u'SX(458)',
        atoms='H:15 C:12 X:1',
        thermo=(NASA([100.00, 976.31],
                     [-1.37882584E+00,  8.72729725E-02,  3.54645112E-05,
                      -1.10989729E-07,  4.90790319E-11,  1.91243778E+04,
                       1.56116669E+01]),
                NASA([976.31, 5000.00],
                     [ 2.68030035E+01,  4.65647436E-02, -1.68432173E-05,
                       3.15349492E-09, -2.31121478E-13,  1.00587909E+04,
                      -1.37919629E+02])))

species(name=u'SX(460)',
        atoms='H:15 C:12 X:1',
        thermo=(NASA([100.00, 976.31],
                     [-1.37882584E+00,  8.72729725E-02,  3.54645112E-05,
                      -1.10989729E-07,  4.90790319E-11,  1.91243778E+04,
                       1.56116669E+01]),
                NASA([976.31, 5000.00],
                     [ 2.68030035E+01,  4.65647436E-02, -1.68432173E-05,
                       3.15349492E-09, -2.31121478E-13,  1.00587909E+04,
                      -1.37919629E+02])))

species(name=u'SX(462)',
        atoms='H:15 C:12 X:1',
        thermo=(NASA([100.00, 969.93],
                     [-1.42901548E+00,  8.92840294E-02,  3.08945489E-05,
                      -1.06998659E-07,  4.80954617E-11,  1.44533311E+04,
                       1.49144147E+01]),
                NASA([969.93, 5000.00],
                     [ 2.64408716E+01,  4.71691220E-02, -1.65932307E-05,
                       3.04879253E-09, -2.21334610E-13,  5.62163804E+03,
                      -1.36348449E+02])))

species(name=u'SX(463)',
        atoms='H:15 C:12 X:1',
        thermo=(NASA([100.00, 969.93],
                     [-1.42901548E+00,  8.92840294E-02,  3.08945489E-05,
                      -1.06998659E-07,  4.80954617E-11,  1.44533311E+04,
                       1.49144147E+01]),
                NASA([969.93, 5000.00],
                     [ 2.64408716E+01,  4.71691220E-02, -1.65932307E-05,
                       3.04879253E-09, -2.21334610E-13,  5.62163804E+03,
                      -1.36348449E+02])))

species(name=u'SX(465)',
        atoms='H:15 C:12 X:1',
        thermo=(NASA([100.00, 970.34],
                     [-1.41774466E+00,  8.61761971E-02,  4.36551332E-05,
                      -1.22944357E-07,  5.41540457E-11,  2.02406889E+04,
                       1.56806467E+01]),