units(length='cm', time='s', quantity='mol', act_energy='kcal/mol')

ideal_gas(name='gas',
          elements="H D T C Ci O Oi N Ne Ar He Si S Cl X",
          species="""n-heptane   Ar          He          Ne
                     N2          C2H4(2)     C4H8-1(3)   C4H8-2(4)
                     C4H6(7)     C6H8(9)     H2(68)      C8H10(113)
                     S(168)      S(181)      S(185)      S(278)
                     C8H12(809)  C7H8(979)   C5H8(1142)  S(1497)
                     S(1545)     S(1548)     S(1623)     S(1875)
                     S(1997)     S(2123)     CH4(2697)   C2H6(2747)""",
          reactions='gas-*',
          initial_state=state(temperature=300.0, pressure=OneAtm))

ideal_interface(name='surface1',
                elements="H D T C Ci O Oi N Ne Ar He Si S Cl X",
                species="""X(1)        HX(5)       C2H3X(37)   CH3X(39)
                          C2H5X(40)   C4H7X(43)   C4H5X(80)   C4H5X(81)
                          C6H7X(132)  C6H7X(133)  C6H7X(134)  SX(313)
                          C6H7X(327)  SX(452)     SX(454)     SX(456)
                          SX(457)     SX(458)     SX(459)     SX(460)
                          SX(461)     SX(462)     SX(463)     SX(464)
                          SX(465)     SX(586)     SX(587)     SX(588)
                          SX(589)     SX(590)     SX(591)     SX(592)
                          SX(593)     SX(596)     SX(598)     C8H9X(666)
                          C8H9X(667)  C8H9X(668)  C8H9X(669)  SX(755)
                          SX(759)     SX(764)     SX(767)     SX(768)
                          SX(777)     SX(801)     SX(860)     SX(862)
                          SX(863)     SX(864)     SX(865)     SX(966)
                          SX(968)     C5H7X(971)  SX(1031)    SX(1032)
                          SX(1036)    SX(1136)    SX(1206)    SX(1398)
                          SX(1464)    SX(1468)    SX(1472)    SX(1473)
                          SX(1478)    SX(1479)    SX(1480)    SX(1490)
                          SX(1651)    SX(1652)    SX(1659)    SX(2321)
                          SX(2332)    SX(2462)    SX(2469)    SX(2470)
                          SX(2654)    SX(2658)""",
                site_density=2.72e-09,
                phases="gas",
          reactions='surface1-*',
                initial_state=state(temperature=300.0, pressure=OneAtm))

#-------------------------------------------------------------------------------
# Element data
#-------------------------------------------------------------------------------

element(symbol=u'X', atomic_mass=195.083)
element(symbol=u'Ci', atomic_mass=13.003)
element(symbol=u'D', atomic_mass=2.014)
element(symbol=u'Oi', atomic_mass=18.0)
element(symbol=u'T', atomic_mass=3.016)
#-------------------------------------------------------------------------------
# Species data
#-------------------------------------------------------------------------------

species(name=u'n-heptane',
        atoms='H:16 C:7',
        thermo=(NASA([100.00, 1262.75],
                     [-2.93512125E-03,  7.69375610E-02, -3.48031525E-05,
                       1.86160506E-09,  2.01550529E-12, -2.57829334E+04,
                       3.00312819E+01]),
                NASA([1262.75, 5000.00],
                     [ 1.38379971E+01,  4.85941816E-02, -1.95472819E-05,
                       3.52833289E-09, -2.39061569E-13, -3.05142526E+04,
                      -4.48654615E+01])))

species(name=u'Ar',
        atoms='Ar:1',
        thermo=(NASA([200.00, 1000.00],
                     [ 2.50000000E+00,  0.00000000E+00,  0.00000000E+00,
                       0.00000000E+00,  0.00000000E+00, -7.45375000E+02,
                       4.37967000E+00]),
                NASA([1000.00, 6000.00],
                     [ 2.50000000E+00,  0.00000000E+00,  0.00000000E+00,
                       0.00000000E+00,  0.00000000E+00, -7.45375000E+02,
                       4.37967000E+00])))

species(name=u'He',
        atoms='He:1',
        thermo=(NASA([200.00, 1000.00],
                     [ 2.50000000E+00,  0.00000000E+00,  0.00000000E+00,
                       0.00000000E+00,  0.00000000E+00, -7.45375000E+02,
                       9.28724000E-01]),
                NASA([1000.00, 6000.00],
                     [ 2.50000000E+00,  0.00000000E+00,  0.00000000E+00,
                       0.00000000E+00,  0.00000000E+00, -7.45375000E+02,
                       9.28724000E-01])))

species(name=u'Ne',
        atoms='Ne:1',
        thermo=(NASA([200.00, 1000.00],
                     [ 2.50000000E+00,  0.00000000E+00,  0.00000000E+00,
                       0.00000000E+00,  0.00000000E+00, -7.45375000E+02,
                       3.35532000E+00]),
                NASA([1000.00, 6000.00],
                     [ 2.50000000E+00,  0.00000000E+00,  0.00000000E+00,
                       0.00000000E+00,  0.00000000E+00, -7.45375000E+02,
                       3.35532000E+00])))

species(name=u'N2',
        atoms='N:2',
        thermo=(NASA([200.00, 1000.00],
                     [ 3.53101000E+00, -1.23661000E-04, -5.02999000E-07,
                       2.43531000E-09, -1.40881000E-12, -1.04698000E+03,
                       2.96747000E+00]),
                NASA([1000.00, 6000.00],
                     [ 2.95258000E+00,  1.39690000E-03, -4.92632000E-07,
                       7.86010000E-11, -4.60755000E-15, -9.23949000E+02,
                       5.87189000E+00])))

species(name=u'C2H4(2)',
        atoms='H:4 C:2',
        thermo=(NASA([100.00, 979.37],
                     [ 3.97469045E+00, -4.75813325E-03,  4.16772624E-05,
                      -4.51377676E-08,  1.54218287E-11,  4.91540855E+03,
                       3.62439976E+00]),
                NASA([979.37, 5000.00],
                     [ 3.55670229E+00,  1.10625819E-02, -4.17009559E-06,
                       7.85564219E-10, -5.70042086E-14,  4.32042473E+03,
                       2.17665377E+00])))

species(name=u'C4H8-1(3)',
        atoms='H:8 C:4',
        thermo=(NASA([100.00, 1007.28],
                     [ 2.58772978E+00,  2.32777883E-02,  1.93412653E-05,
                      -3.55496729E-08,  1.36906178E-11, -1.91872929E+03,
                       1.45750592E+01]),
                NASA([1007.28, 5000.00],
                     [ 7.20516863E+00,  2.36361619E-02, -9.03150325E-06,
                       1.65392736E-09, -1.16019318E-13, -3.79733809E+03,
                      -1.24426086E+01])))

species(name=u'C4H8-2(4)',
        atoms='H:8 C:4',
        thermo=(NASA([100.00, 1157.78],
                     [ 2.51999305E+00,  2.76811707E-02,  9.44135366E-07,
                      -1.25013222E-08,  4.67160311E-12, -3.34374810E+03,
                       1.30195268E+01]),
                NASA([1157.78, 5000.00],
                     [ 6.04218222E+00,  2.60073554E-02, -1.04844041E-05,
                       1.90882450E-09, -1.30601743E-13, -4.86273126E+03,
                      -7.52672501E+00])))

species(name=u'C4H6(7)',
        atoms='H:6 C:4',
        thermo=(NASA([100.00, 946.05],
                     [ 2.80594317E+00,  1.02590609E-02,  6.17237648E-05,
                      -9.01611778E-08,  3.59103084E-11,  1.16584993E+04,
                       1.20623208E+01]),
                NASA([946.05, 5000.00],
                     [ 1.24695345E+01,  1.00551088E-02, -2.41190446E-06,
                       4.57038145E-10, -3.93127871E-14,  8.01071120E+03,
                      -4.36383840E+01])))

species(name=u'C6H8(9)',
        atoms='H:8 C:6',
        thermo=(NASA([100.00, 941.22],
                     [ 1.38427839E+00,  4.14411676E-02,  1.94286778E-05,
                      -6.16687823E-08,  2.86503237E-11,  1.76317462E+04,
                       1.93257559E+01]),
                NASA([941.22, 5000.00],
                     [ 1.69619725E+01,  1.57221629E-02, -4.10117912E-06,
                       6.95735258E-10, -5.26520576E-14,  1.29061653E+04,
                      -6.44097805E+01])))

species(name=u'H2(68)',
        atoms='H:2',
        thermo=(NASA([100.00, 1959.08],
                     [ 3.43536411E+00,  2.12710383E-04, -2.78625110E-07,
                       3.40267219E-10, -7.76032129E-14, -1.03135984E+03,
                      -3.90841731E+00]),
                NASA([1959.08, 5000.00],
                     [ 2.78816619E+00,  5.87640475E-04,  1.59010635E-07,
                      -5.52739465E-11,  4.34311304E-15, -5.96144481E+02,
                       1.12730527E-01])))

species(name=u'C8H10(113)',
        atoms='H:10 C:8',
        thermo=(NASA([100.00, 941.39],
                     [ 8.64066480E-02,  6.59512573E-02,  1.48806368E-06,
                      -6.06834808E-08,  3.13832585E-11,  2.39088947E+04,
                       2.66194394E+01]),
                NASA([941.39, 5000.00],
                     [ 2.28419165E+01,  1.96702446E-02, -5.08789164E-06,
                       8.53647924E-10, -6.42353888E-14,  1.73909208E+04,
                      -9.36517408E+01])))

species(name=u'S(168)',
        atoms='H:14 C:10',
        thermo=(NASA([100.00, 1000.83],
                     [-6.32146437E-02,  6.63332485E-02,  3.52850038E-05,
                      -8.69353634E-08,  3.59812824E-11,  1.49219123E+04,
                       3.14586889E+01]),
                NASA([1000.83, 5000.00],
                     [ 1.83635098E+01,  4.74200092E-02, -1.83996593E-05,
                       3.46689549E-09, -2.49798422E-13,  8.49234666E+03,
                      -7.11493593E+01])))

species(name=u'S(181)',
        atoms='H:16 C:12',
        thermo=(NASA([100.00, 985.43],
                     [-1.88309559E+00,  1.07042782E-01, -2.70575175E-05,
                      -4.30521591E-08,  2.47769762E-11,  4.00783515E+04,
                       4.74622652E+01]),
                NASA([985.43, 5000.00],
                     [ 2.44924173E+01,  5.06802141E-02, -1.84364732E-05,
                       3.32429337E-09, -2.33628170E-13,  3.24184482E+04,
                      -9.18874447E+01])))

species(name=u'S(185)',
        atoms='H:16 C:12',
        thermo=(NASA([100.00, 992.46],
                     [-1.36729922E+00,  9.09281156E-02,  1.69886510E-05,
                      -8.53926708E-08,  3.84292138E-11,  2.11993211E+04,
                       3.87739443E+01]),
                NASA([992.46, 5000.00],
                     [ 2.42203013E+01,  5.14038229E-02, -1.94054924E-05,
                       3.62907015E-09, -2.61719468E-13,  1.29879994E+04,
                      -1.00258754E+02])))

species(name=u'S(278)',
        atoms='H:16 C:12',
        thermo=(NASA([100.00, 967.86],
                     [-1.32199649E+00,  8.47366715E-02,  4.59829753E-05,
                      -1.23787643E-07,  5.42522776E-11,  2.23199242E+04,
                       3.57017535E+01]),
                NASA([967.86, 5000.00],
                     [ 2.71808180E+01,  4.57703342E-02, -1.58004061E-05,
                       2.92353835E-09, -2.14852771E-13,  1.31103467E+04,
                      -1.19950987E+02])))

species(name=u'C8H12(809)',
        atoms='H:12 C:8',
        thermo=(NASA([100.00, 966.56],
                     [-1.28181569E-01,  7.35572718E-02, -1.44332890E-05,
                      -3.89699431E-08,  2.17300225E-11,  1.04422482E+04,
                       2.89601700E+01]),
                NASA([966.56, 5000.00],
                     [ 2.02785356E+01,  2.99584866E-02, -1.01704744E-05,
                       1.81720882E-09, -1.29537993E-13,  4.58909577E+03,
                      -7.86679011E+01])))

species(name=u'C7H8(979)',
        atoms='H:8 C:7',
        thermo=(NASA([100.00, 966.81],
                     [ 1.90138525E+00,  2.67868538E-02,  6.30521699E-05,
                      -9.95222044E-08,  3.94204772E-11,  1.54781490E+04,
                       1.80531034E+01]),
                NASA([966.81, 5000.00],
                     [ 1.41488855E+01,  2.45164374E-02, -8.51968614E-06,
                       1.61189376E-09, -1.20789888E-13,  1.08478552E+04,
                      -5.23193518E+01])))

species(name=u'C5H8(1142)',
        atoms='H:8 C:5',
        thermo=(NASA([100.00, 1049.25],
                     [ 2.01062125E+00,  3.15407221E-02,  2.07789363E-05,
                      -4.44088837E-08,  1.72419051E-11,  7.01383968E+03,
                       1.65768357E+01]),
                NASA([1049.25, 5000.00],
                     [ 1.14809952E+01,  2.45641648E-02, -1.08867246E-05,
                       2.16706993E-09, -1.59145754E-13,  3.42314851E+03,
                      -3.72078949E+01])))

species(name=u'S(1497)',
        atoms='H:16 C:12',
        thermo=(NASA([100.00, 990.56],
                     [-1.32897915E+00,  8.56182008E-02,  4.02397597E-05,
                      -1.13038401E-07,  4.85832217E-11,  2.10166925E+04,
                       3.92287958E+01]),
                NASA([990.56, 5000.00],
                     [ 2.63933768E+01,  4.91370765E-02, -1.87930565E-05,
                       3.60163863E-09, -2.65298454E-13,  1.18221981E+04,
                      -1.12940806E+02])))

species(name=u'S(1545)',
        atoms='H:16 C:12',
        thermo=(NASA([100.00, 911.85],
                     [-1.33609459E+00,  4.63027982E-02,  2.34416435E-04,
                      -3.86157255E-07,  1.66327224E-10,  2.18115178E+04,
                       4.06060071E+01]),
                NASA([911.85, 5000.00],
                     [ 5.29601348E+01, -6.39074443E-03,  1.59676678E-05,
                      -3.35937702E-09,  2.12569373E-13,  4.19823199E+03,
                      -2.58615369E+02])))

species(name=u'S(1548)',
        atoms='H:16 C:12',
        thermo=(NASA([100.00, 911.85],
                     [-1.33609459E+00,  4.63027982E-02,  2.34416435E-04,
                      -3.86157255E-07,  1.66327224E-10,  2.18115178E+04,
                       4.06060071E+01]),
                NASA([911.85, 5000.00],
                     [ 5.29601348E+01, -6.39074443E-03,  1.59676678E-05,
                      -3.35937702E-09,  2.12569373E-13,  4.19823199E+03,
                      -2.58615369E+02])))

species(name=u'S(1623)',
        atoms='H:16 C:12',
        thermo=(NASA([100.00, 1116.83],
                     [-2.83911346E+00,  1.32718825E-01, -1.00111247E-04,
                       3.34512524E-08, -2.86050088E-12,  1.91762838E+04,
                       2.64658390E+01]),
                NASA([1116.83, 5000.00],
                     [ 2.66401466E+01,  4.98852186E-02, -1.94113286E-05,
                       3.51700230E-09, -2.42250932E-13,  1.11729057E+04,
                      -1.25363349E+02])))

species(name=u'S(1875)',
        atoms='H:16 C:12',
        thermo=(NASA([100.00, 1004.10],
                     [-2.44554026E+00,  1.19460124E-01, -5.42113727E-05,
                      -1.98306731E-08,  1.72938054E-11,  1.92327185E+04,
                       2.74324743E+01]),
                NASA([1004.10, 5000.00],
                     [ 2.76168372E+01,  4.73830858E-02, -1.77675062E-05,
                       3.26559190E-09, -2.31661821E-13,  1.07919319E+04,
                      -1.29693355E+02])))

species(name=u'S(1997)',
        atoms='H:16 C:12',
        thermo=(NASA([100.00, 1021.52],
                     [-2.55916537E+00,  1.23979941E-01, -6.98889215E-05,
                      -1.71653017E-09,  1.04672448E-11,  2.00472815E+04,
                       2.60045106E+01]),
                NASA([1021.52, 5000.00],
                     [ 2.69714956E+01,  4.86652125E-02, -1.85023379E-05,
                       3.38660997E-09, -2.38029215E-13,  1.19103911E+04,
                      -1.27389363E+02])))

species(name=u'S(2123)',
        atoms='H:16 C:12',
        thermo=(NASA([100.00, 973.23],
                     [-2.63477225E+00,  1.20226415E-01, -4.37591601E-05,
                      -4.01206255E-08,  2.69317587E-11,  1.73414782E+04,
                       2.60306154E+01]),
                NASA([973.23, 5000.00],
                     [ 3.09674745E+01,  4.16455725E-02, -1.43897765E-05,
                       2.60647468E-09, -1.87348811E-13,  7.98189656E+03,
                      -1.49651929E+02])))

species(name=u'CH4(2697)',
        atoms='H:4 C:1',
        thermo=(NASA([100.00, 1084.15],
                     [ 4.20540072E+00, -5.35540640E-03,  2.51117636E-05,
                      -2.13755910E-08,  5.97496145E-12, -1.01619427E+04,
                      -9.21226951E-01]),
                NASA([1084.15, 5000.00],
                     [ 9.08349401E-01,  1.14539479E-02, -4.57166053E-06,
                       8.29173612E-10, -5.66300105E-14, -9.72001110E+03,
                       1.39926204E+01])))

species(name=u'C2H6(2747)',
        atoms='H:6 C:2',
        thermo=(NASA([100.00, 1012.42],
                     [ 3.72239308E+00,  1.65083640E-03,  3.44175601E-05,
                      -3.76858321E-08,  1.24450696E-11, -1.15575902E+04,
                       4.68247939E+00]),
                NASA([1012.42, 5000.00],
                     [ 2.82848184E+00,  1.73040581E-02, -6.73334315E-06,
                       1.23742041E-09, -8.65676548E-14, -1.19978077E+04,
                       5.93812118E+00])))

species(name=u'X(1)',
        atoms='X:1',
        thermo=(NASA([100.00, 1554.81],
                     [ 7.10134880E-03, -4.25615041E-05,  8.98521156E-08,
                      -7.80182565E-11,  2.32462166E-14, -8.76099414E-01,
                      -3.11209498E-02]),
                NASA([1554.81, 5000.00],
                     [ 1.60301287E-01, -2.52237396E-04,  1.14182282E-07,
                      -1.21473809E-11,  3.85806589E-16, -7.08108147E+01,
                      -9.09535600E-01])))

species(name=u'HX(5)',
        atoms='H:1 X:1',
        thermo=(NASA([100.00, 952.91],
                     [-3.80957846E-01,  5.47219393E-03,  2.60946928E-06,
                      -9.65008412E-09,  4.63967474E-12, -2.16972747E+03,
                       1.01722845E+00]),
                NASA([952.91, 5000.00],
                     [ 2.80337105E+00, -5.41002993E-04,  4.99482316E-07,
                      -7.54902555E-11,  3.06721398E-15, -3.11046605E+03,
                      -1.59435356E+01])))

species(name=u'C2H3X(37)',
        atoms='H:3 C:2 X:1',
        thermo=(NASA([100.00, 928.60],
                     [ 3.83104022E+00, -8.76542826E-03,  6.98017027E-05,
                      -8.68052566E-08,  3.33256145E-11,  6.67725978E+03,
                      -1.81156365E+01]),
                NASA([928.60, 5000.00],
                     [ 8.78015372E+00,  1.92565992E-03,  8.25424482E-07,
                      -1.63654020E-10,  5.70926320E-15,  4.37802175E+03,
                      -4.90566656E+01])))

species(name=u'CH3X(39)',
        atoms='H:3 C:1 X:1',
        thermo=(NASA([100.00, 848.30],
                     [-1.21090611E+00,  2.92390831E-02, -4.49011672E-05,
                       3.86010689E-08, -1.30361474E-11, -1.04325128E+03,
                       6.80940157E+00]),
                NASA([848.30, 5000.00],
                     [ 1.62291116E+00,  1.12987225E-02, -5.08316650E-06,
                       9.46832954E-10, -6.42885005E-14, -1.35931717E+03,
                      -5.42502394E+00])))

species(name=u'C2H5X(40)',
        atoms='H:5 C:2 X:1',
        thermo=(NASA([100.00, 803.89],
                     [-1.64624290E+00,  3.89625197E-02, -4.31124593E-05,
                       2.97071589E-08, -8.80200440E-12, -5.02692683E+03,
                       9.27319544E+00]),
                NASA([803.89, 5000.00],
                     [ 1.97599860E+00,  2.09382411E-02, -9.47914613E-06,
                       1.81392354E-09, -1.27205831E-13, -5.60928061E+03,
                      -7.41117371E+00])))

species(name=u'C4H7X(43)',
        atoms='H:7 C:4 X:1',
        thermo=(NASA([100.00, 965.04],
                     [ 2.56885679E+00,  1.97490862E-02,  3.72996972E-05,
                      -6.04065123E-08,  2.40010228E-11, -1.09270656E+03,
                      -8.56593019E+00]),
                NASA([965.04, 5000.00],
                     [ 9.89750247E+00,  1.86147853E-02, -6.38912892E-06,
                       1.17316108E-09, -8.55462900E-14, -3.86887626E+03,
                      -5.07166347E+01])))

species(name=u'C4H5X(80)',
        atoms='H:5 C:4 X:1',
        thermo=(NASA([100.00, 936.52],
                     [ 2.68471814E+00,  1.36244384E-02,  5.32592262E-05,
                      -8.32913017E-08,  3.41499632E-11,  8.77049546E+03,
                      -1.06510519E+01]),
                NASA([936.52, 5000.00],
                     [ 1.29012238E+01,  8.96922349E-03, -1.71920361E-06,
                       2.89745198E-10, -2.58686934E-14,  5.14745770E+03,
                      -6.83963240E+01])))

species(name=u'C4H5X(81)',
        atoms='H:5 C:4 X:1',
        thermo=(NASA([100.00, 928.62],
                     [ 2.64239936E+00,  8.31017311E-03,  8.12180670E-05,
                      -1.21403473E-07,  4.98652517E-11,  1.39534011E+04,
                      -1.03935602E+01]),
                NASA([928.62, 5000.00],
                     [ 1.69488231E+01,  2.00857887E-03,  2.03445917E-06,
                      -4.02602194E-10,  1.85354193E-14,  8.91100120E+03,
                      -9.11978215E+01])))

species(name=u'C6H7X(132)',
        atoms='H:7 C:6 X:1',
        thermo=(NASA([100.00, 921.06],
                     [ 1.31098703E+00,  3.98938896E-02,  3.32176678E-05,
                      -8.35174769E-08,  3.86291185E-11,  1.37873966E+04,
                      -3.79681512E+00]),
                NASA([921.06, 5000.00],
                     [ 1.94242456E+01,  1.10873203E-02, -1.06260774E-06,
                       6.27632967E-11, -7.94405419E-15,  8.33593945E+03,
                      -1.01173483E+02])))

species(name=u'C6H7X(133)',
        atoms='H:7 C:6 X:1',
        thermo=(NASA([100.00, 937.50],
                     [ 1.68534398E+00,  3.10727560E-02,  5.20804043E-05,
                      -9.63159071E-08,  4.10725706E-11,  1.03875770E+04,
                      -3.14969376E+00]),
                NASA([937.50, 5000.00],
                     [ 1.71062698E+01,  1.56096252E-02, -3.71085468E-06,
                       6.25094970E-10, -4.95752994E-14,  5.28425528E+03,
                      -8.83482755E+01])))

species(name=u'C6H7X(134)',
        atoms='H:7 C:6 X:1',
        thermo=(NASA([100.00, 928.32],
                     [ 1.31533986E+00,  3.68784383E-02,  4.55982789E-05,
                      -9.88748537E-08,  4.43876422E-11,  1.95750469E+04,
                      -3.00642679E+00]),
                NASA([928.32, 5000.00],
                     [ 2.11711895E+01,  8.22305277E-03, -4.16748407E-08,
                      -7.09143678E-11, -2.30023750E-15,  1.34367589E+04,
                      -1.10528035E+02])))

species(name=u'SX(313)',
        atoms='H:11 C:8 X:1',
        thermo=(NASA([100.00, 958.97],
                     [-1.29580872E-01,  7.13774021E-02, -4.26687430E-06,
                      -5.28328946E-08,  2.74203243E-11,  1.95907427E+04,
                       9.83088009E+00]),
                NASA([958.97, 5000.00],
                     [ 2.17337834E+01,  2.72644778E-02, -8.91170460E-06,
                       1.59381901E-09, -1.15613754E-13,  1.32325897E+04,
                      -1.06018841E+02])))

species(name=u'C6H7X(327)',
        atoms='H:7 C:6 X:1',
        thermo=(NASA([100.00, 945.30],
                     [ 1.76553355E+00,  3.00633278E-02,  5.04861057E-05,
                      -9.18407872E-08,  3.86733382E-11,  2.18530367E+04,
                      -4.22077117E+00]),
                NASA([945.30, 5000.00],
                     [ 1.62873747E+01,  1.66994099E-02, -4.60817474E-06,
                       8.23861477E-10, -6.41052275E-14,  1.69591170E+04,
                      -8.48270189E+01])))

species(name=u'SX(452)',
        atoms='H:15 C:12 X:1',
        thermo=(NASA([100.00, 998.99],
                     [-8.99681644E-01,  7.61931439E-02,  6.22666080E-05,
                      -1.28391527E-07,  5.19511337E-11,  1.78535990E+04,
                       1.70468401E+01]),
                NASA([998.99, 5000.00],
                     [ 2.29686336E+01,  5.66217120E-02, -2.24603797E-05,
                       4.30371748E-09, -3.14006954E-13,  9.29254575E+03,
                      -1.17060178E+02])))

species(name=u'SX(454)',
        atoms='H:15 C:12 X:1',
        thermo=(NASA([100.00, 984.85],
                     [-1.25406433E+00,  8.14711964E-02,  5.99711863E-05,
                      -1.35053269E-07,  5.65286943E-11,  1.52651458E+04,
                       1.50882404E+01]),
                NASA([984.85, 5000.00],
                     [ 2.64952131E+01,  5.12034378E-02, -1.94861180E-05,
                       3.72562272E-09, -2.74710317E-13,  5.80147265E+03,
                      -1.38659347E+02])))

species(name=u'SX(456)',
        atoms='H:15 C:12 X:1',
        thermo=(NASA([100.00, 965.88],
                     [-9.39659102E-01,  7.09157952E-02,  8.81192817E-05,
                      -1.68466748E-07,  7.00250655E-11,  2.23907560E+04,
                       1.75963708E+01]),
                NASA([965.88, 5000.00],
                     [ 2.80707627E+01,  4.41051552E-02, -1.51840188E-05,
                       2.87430427E-09, -2.16535705E-13,  1.24331104E+04,
                      -1.43891551E+02])))

species(name=u'SX(457)',
        atoms='H:15 C:12 X:1',
        thermo=(NASA([100.00, 976.32],
                     [-1.37895498E+00,  8.72745360E-02,  3.54588708E-05,
                      -1.10982201E-07,  4.90757397E-11,  2.20255098E+04,
                       1.56121273E+01]),
                NASA([976.32, 5000.00],
                     [ 2.68034823E+01,  4.65639241E-02, -1.68427426E-05,
                       3.15338239E-09, -2.31112121E-13,  1.29597179E+04,
                      -1.37922322E+02])))

species(name=u'SX(458)',
        atoms='H:15 C:12 X:1',
        thermo=(NASA([100.00, 976.32],
                     [-1.37895498E+00,  8.72745360E-02,  3.54588708E-05,
                      -1.10982201E-07,  4.90757397E-11,  2.20255098E+04,
                       1.56121273E+01]),
                NASA([976.32, 5000.00],
                     [ 2.68034823E+01,  4.65639241E-02, -1.68427426E-05,
                       3.15338239E-09, -2.31112121E-13,  1.29597179E+04,
                      -1.37922322E+02])))

species(name=u'SX(459)',
        atoms='H:15 C:12 X:1',
        thermo=(NASA([100.00, 976.32],
                     [-1.37895498E+00,  8.72745360E-02,  3.54588708E-05,
                      -1.10982201E-07,  4.90757397E-11,  2.20255098E+04,
                       1.56121273E+01]),
                NASA([976.32, 5000.00],
                     [ 2.68034823E+01,  4.65639241E-02, -1.68427426E-05,
                       3.15338239E-09, -2.31112121E-13,  1.29597179E+04,
                      -1.37922322E+02])))

species(name=u'SX(460)',
        atoms='H:15 C:12 X:1',
        thermo=(NASA([100.00, 976.32],
                     [-1.37895498E+00,  8.72745360E-02,  3.54588708E-05,
                      -1.10982201E-07,  4.90757397E-11,  2.20255098E+04,
                       1.56121273E+01]),
                NASA([976.32, 5000.00],
                     [ 2.68034823E+01,  4.65639241E-02, -1.68427426E-05,
                       3.15338239E-09, -2.31112121E-13,  1.29597179E+04,
                      -1.37922322E+02])))

species(name=u'SX(461)',
        atoms='H:13 C:10 X:1',
        thermo=(NASA([100.00, 973.92],
                     [-1.15724070E-01,  6.16124753E-02,  6.18072169E-05,
                      -1.24242183E-07,  5.15732180E-11,  1.68644911E+04,
                       8.37237655E+00]),
                NASA([973.92, 5000.00],
                     [ 2.23164003E+01,  4.03454949E-02, -1.45804103E-05,
                       2.75620891E-09, -2.04039345E-13,  9.13424413E+03,
                      -1.16510947E+02])))

species(name=u'SX(462)',
        atoms='H:15 C:12 X:1',
        thermo=(NASA([100.00, 969.94],
                     [-1.42912767E+00,  8.92853921E-02,  3.08896119E-05,
                      -1.06992036E-07,  4.80925496E-11,  1.73544625E+04,
                       1.49148144E+01]),
                NASA([969.94, 5000.00],
                     [ 2.64412764E+01,  4.71684275E-02, -1.65928277E-05,
                       3.04869690E-09, -2.21326651E-13,  8.52259639E+03,
                      -1.36350724E+02])))

species(name=u'SX(463)',
        atoms='H:15 C:12 X:1',
        thermo=(NASA([100.00, 969.94],
                     [-1.42912767E+00,  8.92853921E-02,  3.08896119E-05,
                      -1.06992036E-07,  4.80925496E-11,  1.73544625E+04,
                       1.49148144E+01]),
                NASA([969.94, 5000.00],
                     [ 2.64412764E+01,  4.71684275E-02, -1.65928277E-05,
                       3.04869690E-09, -2.21326651E-13,  8.52259639E+03,
                      -1.36350724E+02])))

species(name=u'SX(464)',
        atoms='H:15 C:12 X:1',
        thermo=(NASA([100.00, 970.35],
                     [-1.41780951E+00,  8.61769845E-02,  4.36522811E-05,
                      -1.22940533E-07,  5.41523646E-11,  2.31418182E+04,
                       1.56808778E+01]),
                NASA([970.35, 5000.00],
                     [ 2.81972010E+01,  4.42909715E-02, -1.55651487E-05,
                       2.91357405E-09, -2.15572214E-13,  1.36190014E+04,
                      -1.45757041E+02])))

species(name=u'SX(465)',
        atoms='H:15 C:12 X:1',
        thermo=(NASA([100.00, 970.35],
                     [-1.41780951E+00,  8.61769845E-02,  4.36522811E-05,
                      -1.22940533E-07,  5.41523646E-11,  2.31418182E+04,
                       1.56808778E+01]),
                NASA([970.35, 5000.00],
                     [ 2.81972010E+01,  4.42909715E-02, -1.55651487E-05,
                       2.91357405E-09, -2.15572214E-13,  1.36190014E+04,
                      -1.45757041E+02])))

species(name=u'SX(586)',
        atoms='H:15 C:12 X:1',
        thermo=(NASA([100.00, 955.41],