units(length='cm', time='s', quantity='mol', act_energy='kcal/mol')

ideal_gas(name='gas',
          elements="H D T C Ci O Oi N Ne Ar He Si S Cl X",
          species="""n-heptane  Ar         He         Ne         N2
                     C2H4(2)    C4H8-1(3)  C4H8-2(4)  C4H6(7)    H2(68)
                     C6H8(119)  S(205)     S(216)     S(276)     S(321)
                     S(404)     S(480)     C7H9(488)  S(502)     S(504)
                     S(512)     S(542)     S(706)     S(907)     S(972)
                     S(1043)    S(1235)    S(1249)    S(1261)    S(1383)
                     S(1494)    S(1495)    S(1563)    S(1791)    S(1859)
                     S(1912)    S(2244)    S(2322)    S(2456)    S(2574)
                     S(2674)    S(2936)""",
          reactions='gas-*',
          initial_state=state(temperature=300.0, pressure=OneAtm))

ideal_interface(name='surface1',
                elements="H D T C Ci O Oi N Ne Ar He Si S Cl X",
                species="""X(1)        HX(5)       C2H3X(37)   C4H5X(80)
                          C4H5X(81)   SX(337)     SX(338)     SX(340)
                          SX(341)     SX(342)     SX(343)     SX(344)
                          SX(372)     SX(373)     SX(425)     SX(429)
                          SX(444)     SX(445)     SX(447)     SX(457)
                          SX(471)     SX(472)     C7H9X(474)  SX(534)
                          SX(632)     SX(643)     C5H7X(725)  SX(726)
                          SX(728)     SX(731)     SX(732)     SX(733)
                          SX(734)     SX(735)     SX(801)     SX(803)
                          SX(804)     SX(805)     SX(806)     SX(807)
                          SX(838)     SX(897)     SX(901)     SX(926)
                          SX(1065)    SX(1066)    SX(1216)    SX(1221)
                          SX(1222)    SX(1228)    SX(1231)    SX(1232)
                          SX(1238)    SX(1244)    SX(1247)    SX(1351)
                          SX(1353)    SX(1355)    SX(1357)    SX(1358)
                          SX(1403)    SX(1485)    SX(1489)    SX(1490)
                          SX(1583)    SX(1584)    SX(1591)    SX(1592)
                          SX(1714)    SX(1769)    SX(1771)    SX(1935)
                          SX(1936)    SX(1938)    SX(2059)    SX(2063)
                          SX(2064)    SX(2126)    SX(2130)    SX(2290)
                          SX(2370)    SX(2372)    SX(2449)    SX(2551)
                          SX(2552)    SX(2553)    SX(2559)    SX(2965)
                          SX(3066)    SX(3074)""",
                site_density=2.72e-09,
                phases="gas",
          reactions='surface1-*',
                initial_state=state(temperature=300.0, pressure=OneAtm))

#-------------------------------------------------------------------------------
# Element data
#-------------------------------------------------------------------------------

element(symbol=u'X', atomic_mass=195.083)
element(symbol=u'Ci', atomic_mass=13.003)
element(symbol=u'D', atomic_mass=2.014)
element(symbol=u'Oi', atomic_mass=18.0)
element(symbol=u'T', atomic_mass=3.016)
#-------------------------------------------------------------------------------
# Species data
#-------------------------------------------------------------------------------

species(name=u'n-heptane',
        atoms='H:16 C:7',
        thermo=(NASA([100.00, 1262.73],
                     [-2.91681405E-03,  7.69373649E-02, -3.48025563E-05,
                       1.86095180E-09,  2.01573617E-12, -2.57829342E+04,
                       3.00312148E+01]),
                NASA([1262.73, 5000.00],
                     [ 1.38377915E+01,  4.85945016E-02, -1.95474548E-05,
                       3.52837178E-09, -2.39064676E-13, -3.05141556E+04,
                      -4.48642836E+01])))

species(name=u'Ar',
        atoms='Ar:1',
        thermo=(NASA([200.00, 1000.00],
                     [ 2.50000000E+00,  0.00000000E+00,  0.00000000E+00,
                       0.00000000E+00,  0.00000000E+00, -7.45375000E+02,
                       4.37967000E+00]),
                NASA([1000.00, 6000.00],
                     [ 2.50000000E+00,  0.00000000E+00,  0.00000000E+00,
                       0.00000000E+00,  0.00000000E+00, -7.45375000E+02,
                       4.37967000E+00])))

species(name=u'He',
        atoms='He:1',
        thermo=(NASA([200.00, 1000.00],
                     [ 2.50000000E+00,  0.00000000E+00,  0.00000000E+00,
                       0.00000000E+00,  0.00000000E+00, -7.45375000E+02,
                       9.28724000E-01]),
                NASA([1000.00, 6000.00],
                     [ 2.50000000E+00,  0.00000000E+00,  0.00000000E+00,
                       0.00000000E+00,  0.00000000E+00, -7.45375000E+02,
                       9.28724000E-01])))

species(name=u'Ne',
        atoms='Ne:1',
        thermo=(NASA([200.00, 1000.00],
                     [ 2.50000000E+00,  0.00000000E+00,  0.00000000E+00,
                       0.00000000E+00,  0.00000000E+00, -7.45375000E+02,
                       3.35532000E+00]),
                NASA([1000.00, 6000.00],
                     [ 2.50000000E+00,  0.00000000E+00,  0.00000000E+00,
                       0.00000000E+00,  0.00000000E+00, -7.45375000E+02,
                       3.35532000E+00])))

species(name=u'N2',
        atoms='N:2',
        thermo=(NASA([200.00, 1000.00],
                     [ 3.53101000E+00, -1.23661000E-04, -5.02999000E-07,
                       2.43531000E-09, -1.40881000E-12, -1.04698000E+03,
                       2.96747000E+00]),
                NASA([1000.00, 6000.00],
                     [ 2.95258000E+00,  1.39690000E-03, -4.92632000E-07,
                       7.86010000E-11, -4.60755000E-15, -9.23949000E+02,
                       5.87189000E+00])))

species(name=u'C2H4(2)',
        atoms='H:4 C:2',
        thermo=(NASA([100.00, 979.36],
                     [ 3.97471606E+00, -4.75844285E-03,  4.16783770E-05,
                      -4.51392516E-08,  1.54224761E-11,  4.91540746E+03,
                       3.62430844E+00]),
                NASA([979.36, 5000.00],
                     [ 3.55660610E+00,  1.10627464E-02, -4.17019079E-06,
                       7.85586770E-10, -5.70060829E-14,  4.32046489E+03,
                       2.17719479E+00])))

species(name=u'C4H8-1(3)',
        atoms='H:8 C:4',
        thermo=(NASA([100.00, 1007.28],
                     [ 2.58772906E+00,  2.32777969E-02,  1.93412349E-05,
                      -3.55496333E-08,  1.36906009E-11, -1.91872926E+03,
                       1.45750618E+01]),
                NASA([1007.28, 5000.00],
                     [ 7.20517168E+00,  2.36361568E-02, -9.03150028E-06,
                       1.65392666E-09, -1.16019260E-13, -3.79733937E+03,
                      -1.24426257E+01])))

species(name=u'C4H8-2(4)',
        atoms='H:8 C:4',
        thermo=(NASA([100.00, 1157.79],
                     [ 2.51998327E+00,  2.76812799E-02,  9.43783469E-07,
                      -1.25009101E-08,  4.67144666E-12, -3.34374767E+03,
                       1.30195623E+01]),
                NASA([1157.79, 5000.00],
                     [ 6.04225708E+00,  2.60072350E-02, -1.04843374E-05,
                       1.90880922E-09, -1.30600505E-13, -4.86276511E+03,
                      -7.52715109E+00])))

species(name=u'C4H6(7)',
        atoms='H:6 C:4',
        thermo=(NASA([100.00, 946.05],
                     [ 2.80599310E+00,  1.02584471E-02,  6.17260255E-05,
                      -9.01642687E-08,  3.59116961E-11,  1.16584972E+04,
                       1.20621434E+01]),
                NASA([946.05, 5000.00],
                     [ 1.24693720E+01,  1.00553901E-02, -2.41206872E-06,
                       4.57077303E-10, -3.93160571E-14,  8.01077795E+03,
                      -4.36374720E+01])))

species(name=u'H2(68)',
        atoms='H:2',
        thermo=(NASA([100.00, 1959.08],
                     [ 3.43536412E+00,  2.12710353E-04, -2.78625043E-07,
                       3.40267167E-10, -7.76031998E-14, -1.03135984E+03,
                      -3.90841732E+00]),
                NASA([1959.08, 5000.00],
                     [ 2.78816583E+00,  5.87640942E-04,  1.59010417E-07,
                      -5.52739026E-11,  4.34310984E-15, -5.96144270E+02,
                       1.12732655E-01])))

species(name=u'C6H8(119)',
        atoms='H:8 C:6',
        thermo=(NASA([100.00, 972.94],
                     [ 1.82686070E+00,  3.47046353E-02,  2.41070171E-05,
                      -5.44847920E-08,  2.29388832E-11,  1.99100661E+04,
                       1.81393315E+01]),
                NASA([972.94, 5000.00],
                     [ 1.21686202E+01,  2.40472785E-02, -8.58151834E-06,
                       1.57034031E-09, -1.12795334E-13,  1.63897115E+04,
                      -3.92195169E+01])))

species(name=u'S(205)',
        atoms='H:16 C:12',
        thermo=(NASA([100.00, 980.77],
                     [-2.21845665E+00,  1.15202302E-01, -4.46058253E-05,
                      -2.89292454E-08,  2.08193354E-11,  3.97133228E+04,
                       4.48687920E+01]),
                NASA([980.77, 5000.00],
                     [ 2.59409200E+01,  4.89148103E-02, -1.74910345E-05,
                       3.12129948E-09, -2.18247198E-13,  3.18543069E+04,
                      -1.02343316E+02])))

species(name=u'S(216)',
        atoms='H:16 C:12',
        thermo=(NASA([100.00, 989.29],
                     [-1.49871027E+00,  8.97231513E-02,  3.13728211E-05,
                      -1.05849951E-07,  4.65472901E-11,  2.08342656E+04,
                       3.86324941E+01]),
                NASA([989.29, 5000.00],
                     [ 2.71231573E+01,  4.82447418E-02, -1.83146882E-05,
                       3.49879125E-09, -2.57494969E-13,  1.15378770E+04,
                      -1.17506583E+02])))

species(name=u'S(276)',
        atoms='H:15 C:12',
        thermo=(NASA([100.00, 994.96],
                     [-9.10525753E-01,  7.23065908E-02,  7.86529115E-05,
                      -1.50118451E-07,  6.04728055E-11,  3.34535297E+04,
                       3.72742060E+01]),
                NASA([994.96, 5000.00],
                     [ 2.59409054E+01,  5.12026508E-02, -2.04595453E-05,
                       4.01923029E-09, -2.99921063E-13,  2.38116792E+04,
                      -1.13734786E+02])))

species(name=u'S(321)',
        atoms='H:16 C:12',
        thermo=(NASA([100.00, 1011.71],
                     [-1.20303342E+00,  8.13255676E-02,  5.51392531E-05,
                      -1.24057147E-07,  5.05122313E-11,  1.92626563E+04,
                       3.67681708E+01]),
                NASA([1011.71, 5000.00],
                     [ 2.55049272E+01,  5.47778999E-02, -2.26996210E-05,
                       4.46368808E-09, -3.29899575E-13,  9.81303791E+03,
                      -1.12386527E+02])))

species(name=u'S(404)',
        atoms='H:15 C:12',
        thermo=(NASA([100.00, 970.90],
                     [-1.71520867E+00,  9.95432566E-02, -4.74357209E-06,
                      -7.04390643E-08,  3.56211412E-11,  3.34415592E+04,
                       3.83477263E+01]),
                NASA([970.90, 5000.00],
                     [ 2.67411184E+01,  4.44003661E-02, -1.54835680E-05,
                       2.80861775E-09, -2.01631064E-13,  2.49892981E+04,
                      -1.13168941E+02])))

species(name=u'S(480)',
        atoms='H:15 C:12',
        thermo=(NASA([100.00, 989.74],
                     [-1.06920106E+00,  8.65061190E-02,  1.75663536E-05,
                      -8.13090760E-08,  3.63222951E-11,  3.19614090E+04,
                       3.90682869E+01]),
                NASA([989.74, 5000.00],
                     [ 2.18995972E+01,  5.23509098E-02, -1.95909391E-05,
                       3.61476272E-09, -2.57905034E-13,  2.45410598E+04,
                      -8.60235913E+01])))

species(name=u'C7H9(488)',
        atoms='H:9 C:7',
        thermo=(NASA([100.00, 960.10],
                     [ 1.94183052E+00,  2.40649774E-02,  7.97952916E-05,
                      -1.18026725E-07,  4.61192248E-11,  2.16204187E+04,
                       2.19868571E+01]),
                NASA([960.10, 5000.00],
                     [ 1.38393996E+01,  2.78185296E-02, -9.37614248E-06,
                       1.73813373E-09, -1.29114199E-13,  1.68783004E+04,
                      -4.77260465E+01])))

species(name=u'S(502)',
        atoms='H:15 C:12',
        thermo=(NASA([100.00, 984.37],
                     [-5.37896420E-01,  6.91571916E-02,  6.78331849E-05,
                      -1.32481351E-07,  5.38778566E-11,  3.40474077E+04,
                       3.25829999E+01]),
                NASA([984.37, 5000.00],
                     [ 2.21119676E+01,  5.17760824E-02, -1.94438000E-05,
                       3.67256768E-09, -2.68128755E-13,  2.59711429E+04,
                      -9.47052603E+01])))

species(name=u'S(504)',
        atoms='H:15 C:12',
        thermo=(NASA([100.00, 989.74],
                     [-1.06920106E+00,  8.65061190E-02,  1.75663536E-05,
                      -8.13090760E-08,  3.63222951E-11,  3.19614090E+04,
                       3.90682869E+01]),
                NASA([989.74, 5000.00],
                     [ 2.18995972E+01,  5.23509098E-02, -1.95909391E-05,
                       3.61476272E-09, -2.57905034E-13,  2.45410598E+04,
                      -8.60235913E+01])))

species(name=u'S(512)',
        atoms='H:15 C:12',
        thermo=(NASA([100.00, 1022.17],
                     [-1.28322346E+00,  9.57235521E-02, -1.62462134E-05,
                      -4.18919866E-08,  2.13315276E-11,  3.61410061E+04,
                       4.21072184E+01]),
                NASA([1022.17, 5000.00],
                     [ 2.05490546E+01,  5.47249965E-02, -2.12907385E-05,
                       3.92724114E-09, -2.76439244E-13,  2.93562980E+04,
                      -7.50550846E+01])))

species(name=u'S(542)',
        atoms='H:16 C:12',
        thermo=(NASA([100.00, 992.60],
                     [-2.02051020E+00,  1.08734835E-01, -2.89711942E-05,
                      -4.32763322E-08,  2.51062468E-11,  1.92512215E+04,
                       3.85793690E+01]),
                NASA([992.60, 5000.00],
                     [ 2.62576693E+01,  4.80482550E-02, -1.77622499E-05,
                       3.26163402E-09, -2.32284753E-13,  1.10132322E+04,
                      -1.10855289E+02])))

species(name=u'S(706)',
        atoms='H:16 C:12',
        thermo=(NASA([100.00, 1017.30],
                     [-1.37783040E+00,  9.57179772E-02, -6.63206008E-06,
                      -5.43503827E-08,  2.59767197E-11,  1.77712276E+04,
                       3.86198672E+01]),
                NASA([1017.30, 5000.00],
                     [ 2.15296154E+01,  5.58142930E-02, -2.17666534E-05,
                       4.04404362E-09, -2.86626411E-13,  1.05145499E+04,
                      -8.50471551E+01])))

species(name=u'S(907)',
        atoms='H:16 C:12',
        thermo=(NASA([100.00, 1078.36],
                     [-1.61970571E+00,  1.05214540E-01, -4.11673959E-05,
                      -1.44002695E-08,  1.09495624E-11,  2.19520729E+04,
                       4.17617609E+01]),
                NASA([1078.36, 5000.00],
                     [ 2.05968416E+01,  5.75124076E-02, -2.30905335E-05,
                       4.27008903E-09, -2.98137525E-13,  1.51426466E+04,
                      -7.64528084E+01])))

species(name=u'S(972)',
        atoms='H:16 C:12',
        thermo=(NASA([100.00, 993.28],
                     [-1.35137518E+00,  9.16977743E-02,  1.24938962E-05,
                      -7.94514123E-08,  3.61313819E-11,  1.92067343E+04,
                       3.90926805E+01]),
                NASA([993.28, 5000.00],
                     [ 2.34678070E+01,  5.24020237E-02, -1.97584541E-05,
                       3.67211340E-09, -2.63243721E-13,  1.12842546E+04,
                      -9.55394156E+01])))

species(name=u'S(1043)',
        atoms='H:16 C:12',
        thermo=(NASA([100.00, 1033.56],
                     [-9.23720371E-01,  8.59160001E-02,  1.22267302E-05,
                      -6.62897958E-08,  2.82431977E-11,  2.01917322E+04,
                       3.83742872E+01]),
                NASA([1033.56, 5000.00],
                     [ 1.86400905E+01,  6.06715946E-02, -2.43822834E-05,
                       4.56855446E-09, -3.23794064E-13,  1.34519247E+04,
                      -6.96965348E+01])))

species(name=u'S(1235)',
        atoms='H:16 C:12',
        thermo=(NASA([100.00, 992.60],
                     [-2.02051020E+00,  1.08734835E-01, -2.89711942E-05,
                      -4.32763322E-08,  2.51062468E-11,  1.92512215E+04,
                       3.85793690E+01]),
                NASA([992.60, 5000.00],
                     [ 2.62576693E+01,  4.80482550E-02, -1.77622499E-05,
                       3.26163402E-09, -2.32284753E-13,  1.10132322E+04,
                      -1.10855289E+02])))

species(name=u'S(1249)',
        atoms='H:16 C:12',
        thermo=(NASA([100.00, 1013.91],
                     [-1.68456148E+00,  9.75829838E-02,  6.75024727E-06,
                      -7.54669033E-08,  3.43459639E-11,  1.64263299E+04,
                       3.41000436E+01]),
                NASA([1013.91, 5000.00],
                     [ 2.51858810E+01,  5.41893443E-02, -2.16834289E-05,
                       4.13524866E-09, -2.99152202E-13,  7.75908379E+03,
                      -1.11776692E+02])))

species(name=u'S(1261)',
        atoms='H:15 C:12',
        thermo=(NASA([100.00, 992.27],
                     [-1.38340081E+00,  8.84602237E-02,  3.06336545E-05,
                      -1.02014839E-07,  4.45162985E-11,  3.06168321E+04,
                       3.38820237E+01]),
                NASA([992.27, 5000.00],
                     [ 2.55878851E+01,  5.06718152E-02, -1.94766159E-05,
                       3.69864365E-09, -2.69824719E-13,  2.17720278E+04,
                      -1.13626772E+02])))

species(name=u'S(1383)',
        atoms='H:10 C:7',
        thermo=(NASA([100.00, 1013.93],
                     [ 1.13620462E+00,  5.07839825E-02,  1.86857674E-06,
                      -3.40292091E-08,  1.53985393E-11,  1.56009780E+04,
                       2.31184760E+01]),
                NASA([1013.93, 5000.00],
                     [ 1.25606010E+01,  3.32052103E-02, -1.27956037E-05,
                       2.35356470E-09, -1.65606655E-13,  1.18711633E+04,
                      -3.91241510E+01])))

species(name=u'S(1494)',
        atoms='H:16 C:12',
        thermo=(NASA([100.00, 969.04],
                     [-1.95478964E+00,  1.02453263E-01, -8.56095212E-07,
                      -7.95139997E-08,  3.97379461E-11,  1.69217225E+04,
                       4.01869367E+01]),
                NASA([969.04, 5000.00],
                     [ 2.88554636E+01,  4.34086299E-02, -1.49263754E-05,
                       2.72412982E-09, -1.97713674E-13,  7.75146213E+03,
                      -1.23991791E+02])))

species(name=u'S(1495)',
        atoms='H:16 C:12',
        thermo=(NASA([100.00, 1031.59],
                     [-1.42875471E+00,  9.80843650E-02, -1.58163572E-05,
                      -4.32470871E-08,  2.16556326E-11,  2.17128853E+04,
                       3.80660407E+01]),
                NASA([1031.59, 5000.00],
                     [ 2.10974364E+01,  5.66708086E-02, -2.23869257E-05,
                       4.16172868E-09, -2.93911032E-13,  1.46213561E+04,
                      -8.31560974E+01])))

species(name=u'S(1563)',
        atoms='H:16 C:12',
        thermo=(NASA([100.00, 998.05],
                     [-1.52430887E+00,  9.66762025E-02, -1.33829094E-06,
                      -6.57485316E-08,  3.14332499E-11,  1.79065710E+04,
                       3.87629342E+01]),
                NASA([998.05, 5000.00],
                     [ 2.38129637E+01,  5.20255394E-02, -1.97432462E-05,
                       3.66493029E-09, -2.61866606E-13,  1.00152729E+04,
                      -9.76216451E+01])))

species(name=u'S(1791)',
        atoms='H:15 C:12',
        thermo=(NASA([100.00, 970.90],
                     [-1.71527315E+00,  9.95440394E-02, -4.74640638E-06,
                      -7.04352655E-08,  3.56194721E-11,  3.32654353E+04,
                       3.91971011E+01]),
                NASA([970.90, 5000.00],
                     [ 2.67413520E+01,  4.43999654E-02, -1.54833356E-05,
                       2.80856260E-09, -2.01626475E-13,  2.48130743E+04,
                      -1.12321110E+02])))

species(name=u'S(1859)',
        atoms='H:16 C:12',
        thermo=(NASA([100.00, 992.60],
                     [-2.02048365E+00,  1.08734517E-01, -2.89700562E-05,
                      -4.32778318E-08,  2.51068937E-11,  1.90750938E+04,
                       3.87352721E+01]),
                NASA([992.60, 5000.00],
                     [ 2.62575639E+01,  4.80484344E-02, -1.77623534E-05,
                       3.26165849E-09, -2.32286782E-13,  1.08371499E+04,
                      -1.10698697E+02])))

species(name=u'S(1912)',
        atoms='H:12 C:9',
        thermo=(NASA([100.00, 979.99],
                     [ 1.39573100E-01,  6.40068822E-02,  2.02552262E-05,
                      -7.22435100E-08,  3.21451983E-11,  1.74655172E+04,
                       2.75901822E+01]),
                NASA([979.99, 5000.00],
                     [ 1.93044996E+01,  3.57565133E-02, -1.29966262E-05,
                       2.41345358E-09, -1.74892587E-13,  1.13095012E+04,
                      -7.67257785E+01])))

species(name=u'S(2244)',
        atoms='H:12 C:9',
        thermo=(NASA([100.00, 986.86],
                     [ 6.07975477E-01,  4.79090863E-02,  6.80642476E-05,
                      -1.20052014E-07,  4.79654524E-11,  2.03024052E+04,
                       2.96119123E+01]),
                NASA([986.86, 5000.00],
                     [ 1.96646167E+01,  3.62744095E-02, -1.39717395E-05,
                       2.73213344E-09, -2.04827040E-13,  1.33464498E+04,
                      -7.82595114E+01])))

species(name=u'S(2322)',
        atoms='H:12 C:9',
        thermo=(NASA([100.00, 1012.48],
                     [ 5.54987535E-02,  7.06483940E-02, -8.23935034E-06,
                      -3.66920719E-08,  1.81701563E-11,  2.55809457E+04,
                       3.26556890E+01]),
                NASA([1012.48, 5000.00],
                     [ 1.69541337E+01,  3.96439259E-02, -1.52799252E-05,
                       2.82437176E-09, -1.99811965E-13,  2.03262856E+04,
                      -5.81308461E+01])))

species(name=u'S(2456)',
        atoms='H:12 C:9',
        thermo=(NASA([100.00, 984.67],
                     [ 5.75280777E-01,  5.28959644E-02,  4.62163973E-05,
                      -9.44456559E-08,  3.87324600E-11,  1.74092102E+04,
                       3.09925695E+01]),
                NASA([984.67, 5000.00],
                     [ 1.76261132E+01,  3.81119558E-02, -1.42572098E-05,
                       2.68963886E-09, -1.96256358E-13,  1.14101699E+04,
                      -6.44158495E+01])))

species(name=u'S(2574)',
        atoms='H:14 C:11',
        thermo=(NASA([100.00, 1047.36],
                     [-8.28906148E-01,  8.87177507E-02, -2.22791017E-05,
                      -2.79517406E-08,  1.51683381E-11,  3.41376999E+04,
                       3.88702036E+01]),
                NASA([1047.36, 5000.00],
                     [ 1.84347777E+01,  5.12707026E-02, -2.03838025E-05,
                       3.77274299E-09, -2.64660812E-13,  2.81212119E+04,
                      -6.44158304E+01])))

species(name=u'S(2674)',
        atoms='H:14 C:11',
        thermo=(NASA([100.00, 993.98],
                     [-5.52028143E-01,  6.84655641E-02,  6.49011961E-05,
                      -1.30057647E-07,  5.28892473E-11,  4.23369386E+04,
                       3.30911475E+01]),
                NASA([993.98, 5000.00],
                     [ 2.38294842E+01,  4.70816645E-02, -1.86259570E-05,
                       3.63074232E-09, -2.69618891E-13,  3.36994363E+04,
                      -1.03455977E+02])))

species(name=u'S(2936)',
        atoms='H:15 C:12',
        thermo=(NASA([100.00, 982.35],
                     [-3.52225573E-01,  6.40814771E-02,  8.13258039E-05,
                      -1.45265481E-07,  5.81152391E-11,  3.42060364E+04,
                       2.90299267E+01]),
                NASA([982.35, 5000.00],
                     [ 2.15353141E+01,  5.25892474E-02, -1.96642503E-05,
                       3.71581299E-09, -2.71758832E-13,  2.61600370E+04,
                      -9.52402685E+01])))

species(name=u'X(1)',
        atoms='X:1',
        thermo=(NASA([100.00, 1554.80],
                     [ 7.10139498E-03, -4.25619522E-05,  8.98533016E-08,
                      -7.80193649E-11,  2.32465471E-14, -8.76101712E-01,
                      -3.11211229E-02]),
                NASA([1554.80, 5000.00],
                     [ 1.60299900E-01, -2.52235409E-04,  1.14181275E-07,
                      -1.21471653E-11,  3.85790025E-16, -7.08100885E+01,
                      -9.09527530E-01])))

species(name=u'HX(5)',
        atoms='H:1 X:1',
        thermo=(NASA([100.00, 952.91],
                     [-3.80965452E-01,  5.47228709E-03,  2.60912778E-06,
                      -9.64961980E-09,  4.63946753E-12, -6.52141699E+03,
                       1.01725550E+00]),
                NASA([952.91, 5000.00],
                     [ 2.80339655E+00, -5.41047017E-04,  4.99507978E-07,
                      -7.54963647E-11,  3.06772366E-15, -7.46216641E+03,
                      -1.59436787E+01])))

species(name=u'C2H3X(37)',
        atoms='H:3 C:2 X:1',
        thermo=(NASA([100.00, 928.62],
                     [ 3.83091018E+00, -8.76381562E-03,  6.97956896E-05,
                      -8.67969174E-08,  3.33218121E-11,  1.24795184E+04,
                      -1.81151753E+01]),
                NASA([928.62, 5000.00],
                     [ 8.78054562E+00,  1.92497720E-03,  8.25825014E-07,
                      -1.63749818E-10,  5.71728318E-15,  1.01801153E+04,
                      -4.90588618E+01])))

species(name=u'C4H5X(80)',
        atoms='H:5 C:4 X:1',
        thermo=(NASA([100.00, 936.52],
                     [ 2.68471723E+00,  1.36244496E-02,  5.32591849E-05,
                      -8.32912448E-08,  3.41499374E-11,  1.45727486E+04,
                      -1.06510487E+01]),
                NASA([936.52, 5000.00],
                     [ 1.29012266E+01,  8.96921861E-03, -1.71920076E-06,
                       2.89744517E-10, -2.58686364E-14,  1.09497097E+04,
                      -6.83963397E+01])))

species(name=u'C4H5X(81)',
        atoms='H:5 C:4 X:1',
        thermo=(NASA([100.00, 928.63],
                     [ 2.64232495E+00,  8.31109593E-03,  8.12146261E-05,
                      -1.21398701E-07,  4.98630759E-11,  1.97556574E+04,
                      -1.03932963E+01]),
                NASA([928.63, 5000.00],
                     [ 1.69490474E+01,  2.00818812E-03,  2.03468841E-06,
                      -4.02657023E-10,  1.85400094E-14,  1.47131630E+04,
                      -9.11990785E+01])))

species(name=u'SX(337)',
        atoms='H:15 C:12 X:1',
        thermo=(NASA([100.00, 987.58],
                     [-9.53673816E-01,  6.94567418E-02,  9.89953662E-05,
                      -1.75789719E-07,  7.03673048E-11,  2.37217869E+04,
                       1.65075881E+01]),
                NASA([987.58, 5000.00],
                     [ 2.75829861E+01,  5.08329941E-02, -1.99853220E-05,
                       3.94206265E-09, -2.96893311E-13,  1.33571239E+04,
                      -1.44747128E+02])))

species(name=u'SX(338)',
        atoms='H:15 C:12 X:1',
        thermo=(NASA([100.00, 979.08],
                     [-1.33399033E+00,  8.15327144E-02,  6.10796305E-05,
                      -1.40544064E-07,  5.96430299E-11,  2.77657847E+04,
                       1.53202014E+01]),
                NASA([979.08, 5000.00],
                     [ 2.88000583E+01,  4.54039529E-02, -1.68327432E-05,
                       3.24878532E-09, -2.43575828E-13,  1.76960124E+04,
                      -1.50712786E+02])))

species(name=u'SX(340)',
        atoms='H:15 C:12 X:1',
        thermo=(NASA([100.00, 975.90],
                     [-1.51414519E+00,  8.61139252E-02,  4.96902414E-05,
                      -1.31247290E-07,  5.71155160E-11,  2.74628701E+04,
                       1.54842336E+01]),
                NASA([975.90, 5000.00],
                     [ 2.97270467E+01,  4.33700161E-02, -1.57320116E-05,
                       3.01842347E-09, -2.26501124E-13,  1.73030178E+04,
                      -1.55286980E+02])))

species(name=u'SX(341)',
        atoms='H:15 C:12 X:1',
        thermo=(NASA([100.00, 975.90],
                     [-1.51414519E+00,  8.61139252E-02,  4.96902414E-05,
                      -1.31247290E-07,  5.71155160E-11,  2.74628701E+04,
                       1.54842336E+01]),
                NASA([975.90, 5000.00],
                     [ 2.97270467E+01,  4.33700161E-02, -1.57320116E-05,
                       3.01842347E-09, -2.26501124E-13,  1.73030178E+04,
                      -1.55286980E+02])))

species(name=u'SX(342)',
        atoms='H:15 C:12 X:1',
        thermo=(NASA([100.00, 970.41],
                     [-1.56569509E+00,  8.81414876E-02,  4.50605462E-05,
                      -1.27176203E-07,  5.60968067E-11,  2.27918816E+04,
                       1.47918280E+01]),
                NASA([970.41, 5000.00],
                     [ 2.93698510E+01,  4.39659324E-02, -1.54771168E-05,
                       2.91255684E-09, -2.16617391E-13,  1.28638117E+04,
                      -1.53743548E+02])))

species(name=u'SX(343)',
        atoms='H:15 C:12 X:1',
        thermo=(NASA([100.00, 970.72],
                     [-1.55417774E+00,  8.50306529E-02,  5.78320529E-05,
                      -1.43136626E-07,  6.21619029E-11,  2.85792288E+04,
                       1.55571823E+01]),
                NASA([970.72, 5000.00],