units(length='cm', time='s', quantity='mol', act_energy='kcal/mol')

ideal_gas(name='gas',
          elements="H D T C Ci O Oi N Ne Ar He Si S Cl X",
          species="""n-heptane   Ar          He          Ne
                     N2          C2H4(2)     C4H8-1(3)   C4H8-2(4)
                     C4H6(7)     H2(68)      C6H8(111)   C8H10(114)
                     S(205)      S(232)      C8H10(266)  S(473)
                     S(566)      S(644)      S(675)      S(760)
                     S(803)      S(822)      S(881)      S(973)
                     S(996)      S(1150)     S(1153)     S(1155)
                     S(1297)     S(1345)     S(1356)     S(1425)
                     S(1486)     S(1589)     S(2018)     S(2076)
                     S(2151)     S(2294)     S(2436)     S(2496)
                     S(2497)     S(2858)     S(3208)     S(3220)""",
          reactions='gas-*',
          initial_state=state(temperature=300.0, pressure=OneAtm))

ideal_interface(name='surface1',
                elements="H D T C Ci O Oi N Ne Ar He Si S Cl X",
                species="""X(1)        HX(5)       C2H3X(37)   C4H5X(80)
                          C4H5X(81)   C6H7X(141)  C6H7X(143)  C8H9X(267)
                          C8H9X(269)  SX(698)     SX(701)     SX(702)
                          SX(934)     SX(937)     SX(1012)    SX(1013)
                          SX(1095)    SX(1288)    SX(1289)    SX(1340)
                          SX(1447)    SX(1451)    SX(1469)    SX(1576)
                          SX(1579)    SX(1581)    SX(1582)    SX(1607)
                          SX(1610)    SX(1615)    SX(1616)    SX(1619)
                          SX(1623)    SX(1714)    SX(1716)    SX(1809)
                          SX(1825)    SX(1827)    SX(1829)    SX(1977)
                          SX(2015)    SX(2053)    SX(2524)    SX(2628)
                          SX(2636)    SX(2733)    SX(2759)    SX(2853)
                          SX(2855)    SX(2882)    SX(2888)    SX(2889)
                          SX(2890)    SX(3164)    SX(3166)    SX(3201)
                          SX(3204)    SX(3309)    SX(3311)    SX(3347)
                          SX(3357)""",
                site_density=2.72e-09,
                phases="gas",
          reactions='surface1-*',
                initial_state=state(temperature=300.0, pressure=OneAtm))

#-------------------------------------------------------------------------------
# Element data
#-------------------------------------------------------------------------------

element(symbol=u'X', atomic_mass=195.083)
element(symbol=u'Ci', atomic_mass=13.003)
element(symbol=u'D', atomic_mass=2.014)
element(symbol=u'Oi', atomic_mass=18.0)
element(symbol=u'T', atomic_mass=3.016)
#-------------------------------------------------------------------------------
# Species data
#-------------------------------------------------------------------------------

species(name=u'n-heptane',
        atoms='H:16 C:7',
        thermo=(NASA([100.00, 1262.73],
                     [-2.91681405E-03,  7.69373649E-02, -3.48025563E-05,
                       1.86095180E-09,  2.01573617E-12, -2.57829342E+04,
                       3.00312148E+01]),
                NASA([1262.73, 5000.00],
                     [ 1.38377915E+01,  4.85945016E-02, -1.95474548E-05,
                       3.52837178E-09, -2.39064676E-13, -3.05141556E+04,
                      -4.48642836E+01])))

species(name=u'Ar',
        atoms='Ar:1',
        thermo=(NASA([200.00, 1000.00],
                     [ 2.50000000E+00,  0.00000000E+00,  0.00000000E+00,
                       0.00000000E+00,  0.00000000E+00, -7.45375000E+02,
                       4.37967000E+00]),
                NASA([1000.00, 6000.00],
                     [ 2.50000000E+00,  0.00000000E+00,  0.00000000E+00,
                       0.00000000E+00,  0.00000000E+00, -7.45375000E+02,
                       4.37967000E+00])))

species(name=u'He',
        atoms='He:1',
        thermo=(NASA([200.00, 1000.00],
                     [ 2.50000000E+00,  0.00000000E+00,  0.00000000E+00,
                       0.00000000E+00,  0.00000000E+00, -7.45375000E+02,
                       9.28724000E-01]),
                NASA([1000.00, 6000.00],
                     [ 2.50000000E+00,  0.00000000E+00,  0.00000000E+00,
                       0.00000000E+00,  0.00000000E+00, -7.45375000E+02,
                       9.28724000E-01])))

species(name=u'Ne',
        atoms='Ne:1',
        thermo=(NASA([200.00, 1000.00],
                     [ 2.50000000E+00,  0.00000000E+00,  0.00000000E+00,
                       0.00000000E+00,  0.00000000E+00, -7.45375000E+02,
                       3.35532000E+00]),
                NASA([1000.00, 6000.00],
                     [ 2.50000000E+00,  0.00000000E+00,  0.00000000E+00,
                       0.00000000E+00,  0.00000000E+00, -7.45375000E+02,
                       3.35532000E+00])))

species(name=u'N2',
        atoms='N:2',
        thermo=(NASA([200.00, 1000.00],
                     [ 3.53101000E+00, -1.23661000E-04, -5.02999000E-07,
                       2.43531000E-09, -1.40881000E-12, -1.04698000E+03,
                       2.96747000E+00]),
                NASA([1000.00, 6000.00],
                     [ 2.95258000E+00,  1.39690000E-03, -4.92632000E-07,
                       7.86010000E-11, -4.60755000E-15, -9.23949000E+02,
                       5.87189000E+00])))

species(name=u'C2H4(2)',
        atoms='H:4 C:2',
        thermo=(NASA([100.00, 979.36],
                     [ 3.97471606E+00, -4.75844285E-03,  4.16783770E-05,
                      -4.51392516E-08,  1.54224761E-11,  4.91540746E+03,
                       3.62430844E+00]),
                NASA([979.36, 5000.00],
                     [ 3.55660610E+00,  1.10627464E-02, -4.17019079E-06,
                       7.85586770E-10, -5.70060829E-14,  4.32046489E+03,
                       2.17719479E+00])))

species(name=u'C4H8-1(3)',
        atoms='H:8 C:4',
        thermo=(NASA([100.00, 1007.28],
                     [ 2.58772906E+00,  2.32777969E-02,  1.93412349E-05,
                      -3.55496333E-08,  1.36906009E-11, -1.91872926E+03,
                       1.45750618E+01]),
                NASA([1007.28, 5000.00],
                     [ 7.20517168E+00,  2.36361568E-02, -9.03150028E-06,
                       1.65392666E-09, -1.16019260E-13, -3.79733937E+03,
                      -1.24426257E+01])))

species(name=u'C4H8-2(4)',
        atoms='H:8 C:4',
        thermo=(NASA([100.00, 1157.79],
                     [ 2.51998327E+00,  2.76812799E-02,  9.43783469E-07,
                      -1.25009101E-08,  4.67144666E-12, -3.34374767E+03,
                       1.30195623E+01]),
                NASA([1157.79, 5000.00],
                     [ 6.04225708E+00,  2.60072350E-02, -1.04843374E-05,
                       1.90880922E-09, -1.30600505E-13, -4.86276511E+03,
                      -7.52715109E+00])))

species(name=u'C4H6(7)',
        atoms='H:6 C:4',
        thermo=(NASA([100.00, 946.05],
                     [ 2.80599310E+00,  1.02584471E-02,  6.17260255E-05,
                      -9.01642687E-08,  3.59116961E-11,  1.16584972E+04,
                       1.20621434E+01]),
                NASA([946.05, 5000.00],
                     [ 1.24693720E+01,  1.00553901E-02, -2.41206872E-06,
                       4.57077303E-10, -3.93160571E-14,  8.01077795E+03,
                      -4.36374720E+01])))

species(name=u'H2(68)',
        atoms='H:2',
        thermo=(NASA([100.00, 1959.08],
                     [ 3.43536412E+00,  2.12710353E-04, -2.78625043E-07,
                       3.40267167E-10, -7.76031998E-14, -1.03135984E+03,
                      -3.90841732E+00]),
                NASA([1959.08, 5000.00],
                     [ 2.78816583E+00,  5.87640942E-04,  1.59010417E-07,
                      -5.52739026E-11,  4.34310984E-15, -5.96144270E+02,
                       1.12732655E-01])))

species(name=u'C6H8(111)',
        atoms='H:8 C:6',
        thermo=(NASA([100.00, 972.94],
                     [ 1.82686070E+00,  3.47046353E-02,  2.41070171E-05,
                      -5.44847920E-08,  2.29388832E-11,  1.99100661E+04,
                       1.81393315E+01]),
                NASA([972.94, 5000.00],
                     [ 1.21686202E+01,  2.40472785E-02, -8.58151834E-06,
                       1.57034031E-09, -1.12795334E-13,  1.63897115E+04,
                      -3.92195169E+01])))

species(name=u'C8H10(114)',
        atoms='H:10 C:8',
        thermo=(NASA([100.00, 1006.91],
                     [ 9.59099136E-01,  5.26052795E-02,  1.05118295E-05,
                      -4.60808495E-08,  1.99632153E-11,  2.84660811E+04,
                       2.42924801E+01]),
                NASA([1006.91, 5000.00],
                     [ 1.34171277E+01,  3.60526403E-02, -1.38971709E-05,
                       2.56761905E-09, -1.81631637E-13,  2.42875578E+04,
                      -4.41873377E+01])))

species(name=u'S(205)',
        atoms='H:16 C:12',
        thermo=(NASA([100.00, 980.77],
                     [-2.21845665E+00,  1.15202302E-01, -4.46058253E-05,
                      -2.89292454E-08,  2.08193354E-11,  3.97133228E+04,
                       4.48687920E+01]),
                NASA([980.77, 5000.00],
                     [ 2.59409200E+01,  4.89148103E-02, -1.74910345E-05,
                       3.12129948E-09, -2.18247198E-13,  3.18543069E+04,
                      -1.02343316E+02])))

species(name=u'S(232)',
        atoms='H:12 C:10',
        thermo=(NASA([100.00, 1043.18],
                     [ 8.00010427E-02,  7.06155121E-02, -3.33970318E-06,
                      -3.75536308E-08,  1.70371997E-11,  3.70226034E+04,
                       3.04877535E+01]),
                NASA([1043.18, 5000.00],
                     [ 1.48527536E+01,  4.77532684E-02, -1.90425431E-05,
                       3.52560547E-09, -2.47266459E-13,  3.21023102E+04,
                      -5.02171312E+01])))

species(name=u'C8H10(266)',
        atoms='H:10 C:8',
        thermo=(NASA([100.00, 977.35],
                     [ 1.20172531E+00,  3.27274077E-02,  9.65442570E-05,
                      -1.46972960E-07,  5.73036376E-11,  3.66668179E+04,
                       1.86380248E+01]),
                NASA([977.35, 5000.00],
                     [ 1.91455428E+01,  3.13148912E-02, -1.18304959E-05,
                       2.35396563E-09, -1.80726910E-13,  2.97193129E+04,
                      -8.51181378E+01])))

species(name=u'S(473)',
        atoms='H:12 C:10',
        thermo=(NASA([100.00, 968.65],
                     [ 6.55596893E-03,  5.50367595E-02,  8.40309751E-05,
                      -1.50786277E-07,  6.17167027E-11,  3.87297379E+04,
                       2.63275406E+01]),
                NASA([968.65, 5000.00],
                     [ 2.42145071E+01,  3.63241455E-02, -1.28171324E-05,
                       2.46810154E-09, -1.87634557E-13,  3.02280478E+04,
                      -1.09367124E+02])))

species(name=u'S(566)',
        atoms='H:12 C:10',
        thermo=(NASA([100.00, 951.30],
                     [ 1.34185611E+00,  1.96504816E-02,  1.66523137E-04,
                      -2.30539147E-07,  8.95413556E-11,  1.93246157E+04,
                       2.36853235E+01]),
                NASA([951.30, 5000.00],
                     [ 2.16557334E+01,  3.28008255E-02, -9.62822880E-06,
                       1.82096891E-09, -1.44696905E-13,  1.09997120E+04,
                      -9.67446486E+01])))

species(name=u'S(644)',
        atoms='H:11 C:10',
        thermo=(NASA([100.00, 927.11],
                     [ 5.80169242E-01,  4.54991468E-02,  8.45438319E-05,
                      -1.52228728E-07,  6.51050039E-11,  3.12309550E+04,
                       2.57307422E+01]),
                NASA([927.11, 5000.00],
                     [ 2.31406667E+01,  2.44209791E-02, -4.73406672E-06,
                       6.89776122E-10, -5.41266922E-14,  2.37703881E+04,
                      -9.90782512E+01])))

species(name=u'S(675)',
        atoms='H:12 C:10',
        thermo=(NASA([100.00, 1606.84],
                     [-2.58439756E+00,  1.02743008E-01, -1.12274223E-04,
                       6.58656072E-08, -1.33833386E-11,  2.83722889E+04,
                       3.61275686E+01]),
                NASA([1606.84, 5000.00],
                     [ 9.59231482E+00,  2.35794831E-02,  7.22869741E-06,
                      -2.63564646E-09,  2.18129066E-13,  3.07656481E+04,
                      -8.76897875E+00])))

species(name=u'S(760)',
        atoms='H:12 C:10',
        thermo=(NASA([100.00, 1314.93],
                     [-2.92258989E+00,  1.41990959E-01, -2.45765849E-04,
                       1.89186283E-07, -4.79177825E-11,  2.49285374E+04,
                       3.06920343E+01]),
                NASA([1314.93, 5000.00],
                     [ 8.88952841E+00,  4.73771032E-03,  2.63857178E-05,
                      -7.39268792E-09,  5.97593455E-13,  3.05815769E+04,
                       3.77902646E+00])))

species(name=u'S(803)',
        atoms='H:12 C:10',
        thermo=(NASA([100.00, 949.70],
                     [ 4.82226649E-01,  5.42847698E-02,  4.91509496E-05,
                      -1.04093974E-07,  4.45855431E-11,  1.95747906E+04,
                       2.55558575E+01]),
                NASA([949.70, 5000.00],
                     [ 1.88386890E+01,  3.46063552E-02, -1.08011743E-05,
                       1.89375880E-09, -1.36530736E-13,  1.34889534E+04,
                      -7.57404475E+01])))

species(name=u'S(822)',
        atoms='H:12 C:10',
        thermo=(NASA([100.00, 941.63],
                     [ 3.06939498E-01,  5.70604805E-02,  4.65593364E-05,
                      -1.06344192E-07,  4.67479758E-11,  1.82367875E+04,
                       2.65831207E+01]),
                NASA([941.63, 5000.00],
                     [ 2.07804146E+01,  3.09542004E-02, -8.80934043E-06,
                       1.50022831E-09, -1.09157733E-13,  1.16827942E+04,
                      -8.52860812E+01])))

species(name=u'S(881)',
        atoms='H:11 C:10',
        thermo=(NASA([100.00, 1595.51],
                     [-2.60226337E+00,  1.04630812E-01, -1.15686496E-04,
                       6.71022978E-08, -1.35671281E-11,  2.71908061E+04,
                       3.06227338E+01]),
                NASA([1595.51, 5000.00],
                     [ 1.23953510E+01,  2.04858660E-02,  7.18049257E-06,
                      -2.52061985E-09,  2.07023473E-13,  2.83294572E+04,
                      -3.01729611E+01])))

species(name=u'S(973)',
        atoms='H:11 C:10',
        thermo=(NASA([100.00, 1595.51],
                     [-2.60226337E+00,  1.04630812E-01, -1.15686496E-04,
                       6.71022978E-08, -1.35671281E-11,  2.71908061E+04,
                       2.99295866E+01]),
                NASA([1595.51, 5000.00],
                     [ 1.23953510E+01,  2.04858660E-02,  7.18049257E-06,
                      -2.52061985E-09,  2.07023473E-13,  2.83294572E+04,
                      -3.08661083E+01])))

species(name=u'S(996)',
        atoms='H:12 C:10',
        thermo=(NASA([100.00, 938.54],
                     [ 1.31842616E+00,  2.45245069E-02,  1.41601427E-04,
                      -2.04220449E-07,  8.11802229E-11,  2.02633070E+04,
                       2.62206771E+01]),
                NASA([938.54, 5000.00],
                     [ 2.06299875E+01,  2.99933859E-02, -7.41987350E-06,
                       1.27659097E-09, -1.00244284E-13,  1.27725369E+04,
                      -8.63163622E+01])))

species(name=u'S(1150)',
        atoms='H:12 C:10',
        thermo=(NASA([100.00, 409.63],
                     [ 1.27334795E+00,  7.49322197E-02,  2.56328352E-05,
                      -2.05483480E-07,  1.97090877E-10,  1.72929753E+04,
                       1.28161445E+01]),
                NASA([409.63, 5000.00],
                     [ 3.33005010E+00,  7.34542760E-02, -3.70843071E-05,
                       7.46444040E-09, -5.40034495E-13,  1.69683768E+04,
                       2.82398358E+00])))

species(name=u'S(1153)',
        atoms='H:12 C:10',
        thermo=(NASA([100.00, 934.25],
                     [ 1.99113391E-01,  5.74229107E-02,  5.24245413E-05,
                      -1.17504561E-07,  5.20710036E-11,  1.48792162E+04,
                       2.88828926E+01]),
                NASA([934.25, 5000.00],
                     [ 2.26598774E+01,  2.78272654E-02, -6.94049925E-06,
                       1.12720966E-09, -8.34982421E-14,  7.77721013E+03,
                      -9.34980752E+01])))

species(name=u'S(1155)',
        atoms='H:12 C:10',
        thermo=(NASA([100.00, 936.03],
                     [ 1.09504016E-01,  6.17879639E-02,  3.70777250E-05,
                      -9.95455852E-08,  4.52089182E-11,  1.51876805E+04,
                       2.76529135E+01]),
                NASA([936.03, 5000.00],
                     [ 2.17228143E+01,  2.96709226E-02, -7.99699322E-06,
                       1.31827299E-09, -9.52491642E-14,  8.50236828E+03,
                      -8.92876899E+01])))

species(name=u'S(1297)',
        atoms='H:12 C:10',
        thermo=(NASA([100.00, 935.11],
                     [ 3.79339109E-01,  5.08577586E-02,  7.34866939E-05,
                      -1.39781495E-07,  5.99633437E-11,  1.76535888E+04,
                       2.84064947E+01]),
                NASA([935.11, 5000.00],
                     [ 2.29267017E+01,  2.76205204E-02, -6.67579693E-06,
                       1.09330263E-09, -8.30308816E-14,  1.02358661E+04,
                      -9.59737471E+01])))

species(name=u'S(1345)',
        atoms='H:14 C:12',
        thermo=(NASA([100.00, 944.10],
                     [-9.66190143E-01,  8.16043415E-02,  2.70757935E-05,
                      -1.02235511E-07,  4.79336969E-11,  2.51674279E+04,
                       3.71715130E+01]),
                NASA([944.10, 5000.00],
                     [ 2.60396504E+01,  3.62366896E-02, -1.05532054E-05,
                       1.80582511E-09, -1.30828644E-13,  1.69907896E+04,
                      -1.07860584E+02])))

species(name=u'S(1356)',
        atoms='H:13 C:12',
        thermo=(NASA([100.00, 1532.44],
                     [-4.15855707E+00,  1.36460532E-01, -1.59387059E-04,
                       9.40021412E-08, -1.94370886E-11,  3.46028371E+04,
                       4.23999308E+01]),
                NASA([1532.44, 5000.00],
                     [ 1.98173043E+01,  1.86361856E-02,  1.00159026E-05,
                      -3.21791618E-09,  2.60868524E-13,  3.37409724E+04,
                      -6.23402977E+01])))

species(name=u'S(1425)',
        atoms='H:14 C:12',
        thermo=(NASA([100.00, 935.89],
                     [-9.17742645E-01,  7.53582560E-02,  5.55807642E-05,
                      -1.38842465E-07,  6.27164417E-11,  2.39307036E+04,
                       3.63905116E+01]),
                NASA([935.89, 5000.00],
                     [ 2.88035099E+01,  3.15739941E-02, -7.66564383E-06,
                       1.25196003E-09, -9.46762549E-14,  1.47219202E+04,
                      -1.24504944E+02])))

species(name=u'S(1486)',
        atoms='H:13 C:12',
        thermo=(NASA([100.00, 1532.44],
                     [-4.15855707E+00,  1.36460532E-01, -1.59387059E-04,
                       9.40021412E-08, -1.94370886E-11,  3.46028371E+04,
                       4.23999308E+01]),
                NASA([1532.44, 5000.00],
                     [ 1.98173043E+01,  1.86361856E-02,  1.00159026E-05,
                      -3.21791618E-09,  2.60868524E-13,  3.37409724E+04,
                      -6.23402977E+01])))

species(name=u'S(1589)',
        atoms='H:14 C:12',
        thermo=(NASA([100.00, 943.73],
                     [-9.37010591E-01,  8.15947625E-02,  2.47854204E-05,
                      -9.89620010E-08,  4.66353518E-11,  2.33669618E+04,
                       3.38097333E+01]),
                NASA([943.73, 5000.00],
                     [ 2.56473110E+01,  3.63929562E-02, -1.06187963E-05,
                       1.81180580E-09, -1.30724291E-13,  1.53445173E+04,
                      -1.08824287E+02])))

species(name=u'S(2018)',
        atoms='H:14 C:12',
        thermo=(NASA([100.00, 949.90],
                     [-8.82108292E-01,  8.22364088E-02,  1.92749790E-05,
                      -8.90859952E-08,  4.19963807E-11,  2.68608649E+04,
                       3.50612260E+01]),
                NASA([949.90, 5000.00],
                     [ 2.38394358E+01,  4.02889124E-02, -1.26340650E-05,
                       2.19263427E-09, -1.56181278E-13,  1.93601609E+04,
                      -9.76953140E+01])))

species(name=u'S(2076)',
        atoms='H:14 C:12',
        thermo=(NASA([100.00, 949.90],
                     [-8.82108292E-01,  8.22364088E-02,  1.92749790E-05,
                      -8.90859952E-08,  4.19963807E-11,  2.68608649E+04,
                       3.50612260E+01]),
                NASA([949.90, 5000.00],
                     [ 2.38394358E+01,  4.02889124E-02, -1.26340650E-05,
                       2.19263427E-09, -1.56181278E-13,  1.93601609E+04,
                      -9.76953140E+01])))

species(name=u'S(2151)',
        atoms='H:14 C:12',
        thermo=(NASA([100.00, 1303.33],
                     [-3.89822782E+00,  1.62189863E-01, -2.56578378E-04,
                       1.91028488E-07, -4.79735479E-11,  3.21536872E+04,
                       3.45201002E+01]),
                NASA([1303.33, 5000.00],
                     [ 1.30128306E+01,  1.59187273E-02,  2.03750915E-05,
                      -6.19132649E-09,  5.12844328E-13,  3.57607254E+04,
                      -2.07972673E+01])))

species(name=u'S(2294)',
        atoms='H:14 C:12',
        thermo=(NASA([100.00, 1010.16],
                     [-7.24944892E-01,  8.73372736E-02, -1.84996009E-05,
                      -3.23524078E-08,  1.73482453E-11,  2.60304375E+04,
                       3.31995292E+01]),
                NASA([1010.16, 5000.00],
                     [ 1.72738322E+01,  5.20161950E-02, -1.94330650E-05,
                       3.49363728E-09, -2.41997401E-13,  2.05598915E+04,
                      -6.28949287E+01])))

species(name=u'S(2436)',
        atoms='H:13 C:12',
        thermo=(NASA([100.00, 1381.71],
                     [-2.97640762E+00,  1.31936737E-01, -1.62557287E-04,
                       1.04048540E-07, -2.36299406E-11,  3.40791048E+04,
                       3.54420941E+01]),
                NASA([1381.71, 5000.00],
                     [ 1.72310492E+01,  2.51611132E-02,  5.76862645E-06,
                      -2.45492977E-09,  2.15671852E-13,  3.31031223E+04,
                      -5.19049942E+01])))

species(name=u'S(2496)',
        atoms='H:14 C:12',
        thermo=(NASA([100.00, 949.69],
                     [-6.45056385E-01,  7.59137182E-02,  3.52558833E-05,
                      -1.03844485E-07,  4.67875455E-11,  2.41539082E+04,
                       3.34084475E+01]),
                NASA([949.69, 5000.00],
                     [ 2.30421851E+01,  4.13010343E-02, -1.29857277E-05,
                       2.26230749E-09, -1.61693921E-13,  1.67165768E+04,
                      -9.51154711E+01])))

species(name=u'S(2497)',
        atoms='H:14 C:12',
        thermo=(NASA([100.00, 960.46],
                     [-8.12203348E-01,  8.34262781E-02,  8.77658434E-06,
                      -7.26374426E-08,  3.47176416E-11,  2.34540732E+04,
                       3.33028449E+01]),
                NASA([960.46, 5000.00],
                     [ 2.16089959E+01,  4.43183428E-02, -1.49003284E-05,
                       2.62498481E-09, -1.84857464E-13,  1.66440023E+04,
                      -8.69928086E+01])))

species(name=u'S(2858)',
        atoms='H:14 C:12',
        thermo=(NASA([100.00, 966.81],
                     [-6.85417664E-01,  8.28228879E-02,  3.16149632E-06,
                      -6.21794284E-08,  2.99760604E-11,  2.26690745E+04,
                       3.29251674E+01]),
                NASA([966.81, 5000.00],
                     [ 1.96237847E+01,  4.70733278E-02, -1.62739775E-05,
                       2.87083138E-09, -2.00293590E-13,  1.64858334E+04,
                      -7.60378830E+01])))

species(name=u'S(3208)',
        atoms='H:14 C:12',
        thermo=(NASA([100.00, 943.15],
                     [-7.78519436E-01,  7.42689681E-02,  5.10022322E-05,
                      -1.28380547E-07,  5.74363172E-11,  2.70193968E+04,
                       3.47064404E+01]),
                NASA([943.15, 5000.00],
                     [ 2.67426017E+01,  3.50206256E-02, -9.78845622E-06,
                       1.68166086E-09, -1.24583109E-13,  1.83824036E+04,
                      -1.14723123E+02])))

species(name=u'S(3220)',
        atoms='H:13 C:12',
        thermo=(NASA([100.00, 930.38],
                     [-4.50091278E-01,  6.17634694E-02,  8.90441762E-05,
                      -1.73635021E-07,  7.54900611E-11,  3.92473779E+04,
                       3.31984229E+01]),
                NASA([930.38, 5000.00],
                     [ 2.88829512E+01,  2.80271674E-02, -5.49836735E-06,
                       8.29609393E-10, -6.65598569E-14,  2.97911825E+04,
                      -1.27685865E+02])))

species(name=u'X(1)',
        atoms='X:1',
        thermo=(NASA([100.00, 1554.80],
                     [ 7.10139498E-03, -4.25619522E-05,  8.98533016E-08,
                      -7.80193649E-11,  2.32465471E-14, -8.76101712E-01,
                      -3.11211229E-02]),
                NASA([1554.80, 5000.00],
                     [ 1.60299900E-01, -2.52235409E-04,  1.14181275E-07,
                      -1.21471653E-11,  3.85790025E-16, -7.08100885E+01,
                      -9.09527530E-01])))

species(name=u'HX(5)',
        atoms='H:1 X:1',
        thermo=(NASA([100.00, 952.91],
                     [-3.80965452E-01,  5.47228709E-03,  2.60912778E-06,
                      -9.64961980E-09,  4.63946753E-12,  2.18196270E+03,
                       1.01725550E+00]),
                NASA([952.91, 5000.00],
                     [ 2.80339655E+00, -5.41047017E-04,  4.99507978E-07,
                      -7.54963647E-11,  3.06772366E-15,  1.24121328E+03,
                      -1.59436787E+01])))

species(name=u'C2H3X(37)',
        atoms='H:3 C:2 X:1',
        thermo=(NASA([100.00, 928.62],
                     [ 3.83091018E+00, -8.76381562E-03,  6.97956896E-05,
                      -8.67969174E-08,  3.33218121E-11,  1.24795184E+04,
                      -1.81151753E+01]),
                NASA([928.62, 5000.00],
                     [ 8.78054562E+00,  1.92497720E-03,  8.25825014E-07,
                      -1.63749818E-10,  5.71728318E-15,  1.01801153E+04,
                      -4.90588618E+01])))

species(name=u'C4H5X(80)',
        atoms='H:5 C:4 X:1',
        thermo=(NASA([100.00, 936.52],
                     [ 2.68471723E+00,  1.36244496E-02,  5.32591849E-05,
                      -8.32912448E-08,  3.41499374E-11,  1.45727486E+04,
                      -1.06510487E+01]),
                NASA([936.52, 5000.00],
                     [ 1.29012266E+01,  8.96921861E-03, -1.71920076E-06,
                       2.89744517E-10, -2.58686364E-14,  1.09497097E+04,
                      -6.83963397E+01])))

species(name=u'C4H5X(81)',
        atoms='H:5 C:4 X:1',
        thermo=(NASA([100.00, 928.63],
                     [ 2.64232495E+00,  8.31109593E-03,  8.12146261E-05,
                      -1.21398701E-07,  4.98630759E-11,  1.97556574E+04,
                      -1.03932963E+01]),
                NASA([928.63, 5000.00],
                     [ 1.69490474E+01,  2.00818812E-03,  2.03468841E-06,
                      -4.02657023E-10,  1.85400094E-14,  1.47131630E+04,
                      -9.11990785E+01])))

species(name=u'C6H7X(141)',
        atoms='H:7 C:6 X:1',
        thermo=(NASA([100.00, 939.12],
                     [ 1.23971063E+00,  4.15294424E-02,  2.87312030E-05,
                      -7.68516542E-08,  3.51745289E-11,  2.00393518E+04,
                      -4.03285459E+00]),
                NASA([939.12, 5000.00],
                     [ 1.93724853E+01,  1.27701081E-02, -2.75741682E-06,
                       4.63865028E-10, -3.86965214E-14,  1.44960216E+04,
                      -1.01754711E+02])))

species(name=u'C6H7X(143)',
        atoms='H:7 C:6 X:1',
        thermo=(NASA([100.00, 945.31],
                     [ 1.76545134E+00,  3.00643386E-02,  5.04823806E-05,
                      -9.18356912E-08,  3.86710488E-11,  2.76552933E+04,
                      -4.22047906E+00]),
                NASA([945.31, 5000.00],
                     [ 1.62876414E+01,  1.66989483E-02, -4.60790511E-06,
                       8.23797195E-10, -6.40998588E-14,  2.27612606E+04,
                      -8.48285150E+01])))

species(name=u'C8H9X(267)',
        atoms='H:9 C:8 X:1',
        thermo=(NASA([100.00, 959.28],
                     [ 3.85882967E-01,  5.92908085E-02,  1.54833399E-05,
                      -6.86507645E-08,  3.21558607E-11,  2.85947555E+04,
                       2.06887013E+00]),
                NASA([959.28, 5000.00],
                     [ 2.04284767E+01,  2.50940018E-02, -8.25315628E-06,
                       1.50306504E-09, -1.10971517E-13,  2.24776020E+04,
                      -1.05633347E+02])))

species(name=u'C8H9X(269)',
        atoms='H:9 C:8 X:1',
        thermo=(NASA([100.00, 965.61],
                     [ 9.11784647E-01,  4.78191273E-02,  3.72831813E-05,
                      -8.37427917E-08,  3.57220277E-11,  3.62106920E+04,
                       1.88094318E+00]),
                NASA([965.61, 5000.00],
                     [ 1.73636393E+01,  2.89899348E-02, -1.00851243E-05,
                       1.85870102E-09, -1.36023408E-13,  3.07340870E+04,
                      -8.88204343E+01])))

species(name=u'SX(698)',
        atoms='H:11 C:10 X:1',
        thermo=(NASA([100.00, 946.49],
                     [ 1.57174856E+00,  1.14441889E-02,  1.92277852E-04,