units(length='cm', time='s', quantity='mol', act_energy='kcal/mol')

ideal_gas(name='gas',
          elements="H D T C Ci O Oi N Ne Ar He Si S Cl X",
          species="""n-heptane   Ar          He          Ne
                     N2          C2H4(2)     C4H8-1(3)   C4H8-2(4)
                     C4H6(7)     C6H8(9)     H2(68)      C4H6a(79)
                     C6H10d(84)  C6H9(136)   S(163)      S(181)
                     S(185)      S(189)      S(244)      S(264)
                     S(301)      S(518)      C6H10(651)  C8H12(652)
                     S(655)      C6H10(821)  S(865)      S(888)
                     S(889)      S(1018)     S(1209)     S(1216)
                     S(1628)     S(1703)     C2H6(2020)  S(2539)
                     S(3685)     S(3857)     S(4138)     S(4642)
                     S(4743)     S(5048)     S(5114)     C4H8(5196)
                     S(5866)     S(6365)     S(6368)""",
          reactions='gas-*',
          initial_state=state(temperature=300.0, pressure=OneAtm))

ideal_interface(name='surface1',
                elements="H D T C Ci O Oi N Ne Ar He Si S Cl X",
                species="""X(1)        HX(5)       C2H3X(37)   C2H5X(40)
                          C4H7X(41)   C4H7X(42)   C4H7X(43)   C4H7X(44)
                          C4H5X(80)   C4H5X(81)   C6H9X(159)  SX(160)
                          C6H9X(192)  SX(197)     SX(198)     SX(407)
                          SX(409)     SX(410)     SX(411)     SX(412)
                          SX(413)     SX(414)     SX(415)     SX(417)
                          SX(418)     SX(419)     SX(420)     C6H9X(642)
                          SX(706)     SX(708)     SX(711)     C6H9X(822)
                          C6H9X(823)  C6H9X(824)  SX(950)     SX(977)
                          SX(989)     SX(990)     SX(991)     SX(1040)
                          SX(1045)    SX(1046)    SX(1065)    SX(1070)
                          SX(1076)    SX(1077)    SX(1204)    SX(1260)
                          SX(1473)    SX(1475)    SX(1573)    SX(1580)
                          SX(1593)    SX(1594)    SX(1602)    SX(1609)
                          SX(1620)    SX(1621)    SX(1764)    SX(1768)
                          SX(2151)    SX(2153)    SX(2498)    SX(2502)
                          SX(2518)    SX(2521)    SX(2549)    SX(2550)
                          SX(2553)    SX(2554)    SX(2557)    SX(2558)
                          SX(2559)    SX(2563)    SX(2564)    SX(2569)
                          SX(2570)    SX(2571)    SX(2578)    SX(2579)
                          SX(2580)    SX(2583)    SX(2584)    SX(2590)
                          SX(2635)    SX(2636)    SX(2644)    SX(2645)
                          SX(2673)    SX(2674)    SX(2679)    SX(2680)
                          SX(2681)    SX(2682)    SX(2687)    SX(2688)
                          SX(2689)    SX(2690)    SX(2693)    SX(2694)
                          SX(2695)    SX(2700)    SX(2701)    SX(2734)
                          SX(2879)    SX(2880)    SX(2881)    SX(2884)
                          SX(2885)    SX(2892)    SX(2918)    SX(2929)
                          SX(2930)    SX(2931)    SX(2937)    SX(2938)
                          SX(2939)    SX(2951)    SX(2964)    SX(2965)
                          SX(2977)    SX(2978)    SX(2983)    SX(2984)
                          SX(2985)    SX(2986)    SX(2998)    SX(2999)
                          SX(3009)    SX(3010)    SX(3011)    SX(3018)
                          SX(3019)    SX(3020)    SX(3025)    SX(3026)
                          SX(3027)    SX(3028)    SX(3041)    SX(3045)
                          SX(3046)    SX(3054)    SX(3055)    SX(3056)
                          SX(3063)    SX(3064)    SX(3083)    SX(3090)
                          SX(3096)    SX(3097)    SX(3108)    SX(3129)
                          SX(3139)    SX(3151)    SX(3158)    SX(3172)
                          SX(3182)    SX(3190)    SX(3191)    SX(3192)
                          SX(3197)    SX(3198)    SX(3199)    SX(3200)
                          SX(3204)    SX(3205)    SX(3206)    SX(3226)
                          SX(3227)    SX(3234)    SX(3235)    SX(3240)
                          SX(3241)    SX(3250)    SX(3251)    SX(3264)
                          SX(3265)    SX(3312)    SX(3326)    SX(3356)
                          SX(3357)    SX(3364)    SX(3367)    SX(3444)
                          SX(3445)    SX(3452)    SX(3464)    SX(3465)
                          SX(3607)    SX(3620)    SX(3623)    SX(3624)
                          SX(3625)    SX(3629)    SX(3630)    SX(3631)
                          SX(3635)    SX(3640)    SX(3651)    SX(3652)
                          SX(3663)    SX(3664)    SX(3667)    SX(3672)
                          SX(3673)    SX(4027)    SX(4036)    SX(4052)
                          SX(4053)    SX(4072)    SX(4073)    SX(4089)
                          SX(4102)    SX(4105)    SX(4106)    SX(4120)
                          SX(4123)    SX(4153)    SX(4154)    SX(4447)
                          SX(4454)    SX(4590)    SX(4640)    SX(4738)
                          SX(4741)    SX(5644)    SX(5694)    SX(5695)
                          SX(5696)    SX(5848)    SX(6467)""",
                site_density=2.72e-09,
                phases="gas",
          reactions='surface1-*',
                initial_state=state(temperature=300.0, pressure=OneAtm))

#-------------------------------------------------------------------------------
# Element data
#-------------------------------------------------------------------------------

element(symbol=u'X', atomic_mass=195.083)
element(symbol=u'Ci', atomic_mass=13.003)
element(symbol=u'D', atomic_mass=2.014)
element(symbol=u'Oi', atomic_mass=18.0)
element(symbol=u'T', atomic_mass=3.016)
#-------------------------------------------------------------------------------
# Species data
#-------------------------------------------------------------------------------

species(name=u'n-heptane',
        atoms='H:16 C:7',
        thermo=(NASA([100.00, 1262.73],
                     [-2.91681405E-03,  7.69373649E-02, -3.48025563E-05,
                       1.86095180E-09,  2.01573617E-12, -2.57829342E+04,
                       3.00312148E+01]),
                NASA([1262.73, 5000.00],
                     [ 1.38377915E+01,  4.85945016E-02, -1.95474548E-05,
                       3.52837178E-09, -2.39064676E-13, -3.05141556E+04,
                      -4.48642836E+01])))

species(name=u'Ar',
        atoms='Ar:1',
        thermo=(NASA([200.00, 1000.00],
                     [ 2.50000000E+00,  0.00000000E+00,  0.00000000E+00,
                       0.00000000E+00,  0.00000000E+00, -7.45375000E+02,
                       4.37967000E+00]),
                NASA([1000.00, 6000.00],
                     [ 2.50000000E+00,  0.00000000E+00,  0.00000000E+00,
                       0.00000000E+00,  0.00000000E+00, -7.45375000E+02,
                       4.37967000E+00])))

species(name=u'He',
        atoms='He:1',
        thermo=(NASA([200.00, 1000.00],
                     [ 2.50000000E+00,  0.00000000E+00,  0.00000000E+00,
                       0.00000000E+00,  0.00000000E+00, -7.45375000E+02,
                       9.28724000E-01]),
                NASA([1000.00, 6000.00],
                     [ 2.50000000E+00,  0.00000000E+00,  0.00000000E+00,
                       0.00000000E+00,  0.00000000E+00, -7.45375000E+02,
                       9.28724000E-01])))

species(name=u'Ne',
        atoms='Ne:1',
        thermo=(NASA([200.00, 1000.00],
                     [ 2.50000000E+00,  0.00000000E+00,  0.00000000E+00,
                       0.00000000E+00,  0.00000000E+00, -7.45375000E+02,
                       3.35532000E+00]),
                NASA([1000.00, 6000.00],
                     [ 2.50000000E+00,  0.00000000E+00,  0.00000000E+00,
                       0.00000000E+00,  0.00000000E+00, -7.45375000E+02,
                       3.35532000E+00])))

species(name=u'N2',
        atoms='N:2',
        thermo=(NASA([200.00, 1000.00],
                     [ 3.53101000E+00, -1.23661000E-04, -5.02999000E-07,
                       2.43531000E-09, -1.40881000E-12, -1.04698000E+03,
                       2.96747000E+00]),
                NASA([1000.00, 6000.00],
                     [ 2.95258000E+00,  1.39690000E-03, -4.92632000E-07,
                       7.86010000E-11, -4.60755000E-15, -9.23949000E+02,
                       5.87189000E+00])))

species(name=u'C2H4(2)',
        atoms='H:4 C:2',
        thermo=(NASA([100.00, 979.36],
                     [ 3.97471606E+00, -4.75844285E-03,  4.16783770E-05,
                      -4.51392516E-08,  1.54224761E-11,  4.91540746E+03,
                       3.62430844E+00]),
                NASA([979.36, 5000.00],
                     [ 3.55660610E+00,  1.10627464E-02, -4.17019079E-06,
                       7.85586770E-10, -5.70060829E-14,  4.32046489E+03,
                       2.17719479E+00])))

species(name=u'C4H8-1(3)',
        atoms='H:8 C:4',
        thermo=(NASA([100.00, 1007.28],
                     [ 2.58772906E+00,  2.32777969E-02,  1.93412349E-05,
                      -3.55496333E-08,  1.36906009E-11, -1.91872926E+03,
                       1.45750618E+01]),
                NASA([1007.28, 5000.00],
                     [ 7.20517168E+00,  2.36361568E-02, -9.03150028E-06,
                       1.65392666E-09, -1.16019260E-13, -3.79733937E+03,
                      -1.24426257E+01])))

species(name=u'C4H8-2(4)',
        atoms='H:8 C:4',
        thermo=(NASA([100.00, 1157.79],
                     [ 2.51998327E+00,  2.76812799E-02,  9.43783469E-07,
                      -1.25009101E-08,  4.67144666E-12, -3.34374767E+03,
                       1.30195623E+01]),
                NASA([1157.79, 5000.00],
                     [ 6.04225708E+00,  2.60072350E-02, -1.04843374E-05,
                       1.90880922E-09, -1.30600505E-13, -4.86276511E+03,
                      -7.52715109E+00])))

species(name=u'C4H6(7)',
        atoms='H:6 C:4',
        thermo=(NASA([100.00, 946.05],
                     [ 2.80599310E+00,  1.02584471E-02,  6.17260255E-05,
                      -9.01642687E-08,  3.59116961E-11,  1.16584972E+04,
                       1.20621434E+01]),
                NASA([946.05, 5000.00],
                     [ 1.24693720E+01,  1.00553901E-02, -2.41206872E-06,
                       4.57077303E-10, -3.93160571E-14,  8.01077795E+03,
                      -4.36374720E+01])))

species(name=u'C6H8(9)',
        atoms='H:8 C:6',
        thermo=(NASA([100.00, 941.22],
                     [ 1.38427980E+00,  4.14411503E-02,  1.94287417E-05,
                      -6.16688700E-08,  2.86503633E-11,  1.76317461E+04,
                       1.93257509E+01]),
                NASA([941.22, 5000.00],
                     [ 1.69619680E+01,  1.57221707E-02, -4.10118367E-06,
                       6.95736344E-10, -5.26521484E-14,  1.29061672E+04,
                      -6.44097553E+01])))

species(name=u'H2(68)',
        atoms='H:2',
        thermo=(NASA([100.00, 1959.08],
                     [ 3.43536412E+00,  2.12710353E-04, -2.78625043E-07,
                       3.40267167E-10, -7.76031998E-14, -1.03135984E+03,
                      -3.90841732E+00]),
                NASA([1959.08, 5000.00],
                     [ 2.78816583E+00,  5.87640942E-04,  1.59010417E-07,
                      -5.52739026E-11,  4.34310984E-15, -5.96144270E+02,
                       1.12732655E-01])))

species(name=u'C4H6a(79)',
        atoms='H:6 C:4',
        thermo=(NASA([100.00, 950.38],
                     [ 3.41327601E+00, -4.60830638E-03,  9.57205603E-05,
                      -1.18800574E-07,  4.44495312E-11,  1.74039828E+04,
                       1.01517556E+01]),
                NASA([950.38, 5000.00],
                     [ 9.72156091E+00,  1.36879055E-02, -3.93842260E-06,
                       7.58710118E-10, -6.16013131E-14,  1.41795804E+04,
                      -3.06164436E+01])))

species(name=u'C6H10d(84)',
        atoms='H:10 C:6',
        thermo=(NASA([100.00, 969.70],
                     [ 2.39493639E+00,  1.31308716E-02,  1.02019898E-04,
                      -1.35266841E-07,  5.06735576E-11, -2.55363631E+03,
                       1.63461006E+01]),
                NASA([969.70, 5000.00],
                     [ 1.20193596E+01,  2.96991246E-02, -1.06504175E-05,
                       2.03502649E-09, -1.52378829E-13, -7.06570658E+03,
                      -4.34309725E+01])))

species(name=u'C6H9(136)',
        atoms='H:9 C:6',
        thermo=(NASA([100.00, 995.34],
                     [ 1.62522454E+00,  3.93401586E-02,  1.78978273E-05,
                      -4.78993847E-08,  2.01402388E-11,  1.69431093E+04,
                       2.25224222E+01]),
                NASA([995.34, 5000.00],
                     [ 1.22021413E+01,  2.74567638E-02, -1.03424270E-05,
                       1.92565312E-09, -1.38069748E-13,  1.33207104E+04,
                      -3.60755769E+01])))

species(name=u'S(163)',
        atoms='H:14 C:10',
        thermo=(NASA([100.00, 1005.33],
                     [-8.70330413E-01,  8.89793335E-02, -2.38552724E-05,
                      -3.15628111E-08,  1.81664076E-11,  3.78335548E+04,
                       4.06086741E+01]),
                NASA([1005.33, 5000.00],
                     [ 2.02610588E+01,  4.45995858E-02, -1.68699763E-05,
                       3.08363695E-09, -2.16972192E-13,  3.15786714E+04,
                      -7.14276628E+01])))

species(name=u'S(181)',
        atoms='H:16 C:12',
        thermo=(NASA([100.00, 985.43],
                     [-1.88304682E+00,  1.07042194E-01, -2.70554103E-05,
                      -4.30549514E-08,  2.47781880E-11,  4.00783494E+04,
                       4.74620913E+01]),
                NASA([985.43, 5000.00],
                     [ 2.44922294E+01,  5.06805346E-02, -1.84366585E-05,
                       3.32433721E-09, -2.33631810E-13,  3.24185269E+04,
                      -9.18863874E+01])))

species(name=u'S(185)',
        atoms='H:16 C:12',
        thermo=(NASA([100.00, 992.45],
                     [-1.36726188E+00,  9.09276671E-02,  1.69902518E-05,
                      -8.53947805E-08,  3.84301239E-11,  2.11993195E+04,
                       3.87738109E+01]),
                NASA([992.45, 5000.00],
                     [ 2.42201531E+01,  5.14040751E-02, -1.94056379E-05,
                       3.62910452E-09, -2.61722320E-13,  1.29880616E+04,
                      -1.00257920E+02])))

species(name=u'S(189)',
        atoms='H:16 C:12',
        thermo=(NASA([100.00, 961.97],
                     [-1.50816176E+00,  8.75229397E-02,  4.32196782E-05,
                      -1.26059866E-07,  5.63926918E-11,  3.17299871E+04,
                       4.22614545E+01]),
                NASA([961.97, 5000.00],
                     [ 2.93787122E+01,  4.15661279E-02, -1.37239862E-05,
                       2.52954162E-09, -1.88135179E-13,  2.19715065E+04,
                      -1.25386845E+02])))

species(name=u'S(244)',
        atoms='H:16 C:12',
        thermo=(NASA([100.00, 1082.71],
                     [-1.42165646E+00,  1.00366054E-01, -2.86690015E-05,
                      -2.45430021E-08,  1.37134617E-11,  2.67269131E+04,
                       3.45501008E+01]),
                NASA([1082.71, 5000.00],
                     [ 1.94956582E+01,  6.02181764E-02, -2.44875026E-05,
                       4.55572743E-09, -3.18938634E-13,  2.00211421E+04,
                      -7.80762928E+01])))

species(name=u'S(264)',
        atoms='H:16 C:12',
        thermo=(NASA([100.00, 967.86],
                     [-1.32209228E+00,  8.47378361E-02,  4.59787499E-05,
                      -1.23781967E-07,  5.42497769E-11,  2.23199283E+04,
                       3.57020946E+01]),
                NASA([967.86, 5000.00],
                     [ 2.71811605E+01,  4.57697461E-02, -1.58000646E-05,
                       2.92345730E-09, -2.14846023E-13,  1.31102045E+04,
                      -1.19952912E+02])))

species(name=u'S(301)',
        atoms='H:15 C:12',
        thermo=(NASA([100.00, 993.54],
                     [-1.21346258E+00,  8.43526020E-02,  3.95110756E-05,
                      -1.09218661E-07,  4.65596299E-11,  3.07992502E+04,
                       3.58638913E+01]),
                NASA([993.54, 5000.00],
                     [ 2.48582341E+01,  5.15640076E-02, -1.99549339E-05,
                       3.80148454E-09, -2.77628001E-13,  2.20562691E+04,
                      -1.07675478E+02])))

species(name=u'S(518)',
        atoms='H:16 C:12',
        thermo=(NASA([100.00, 986.81],
                     [-1.58942639E+00,  9.66108811E-02,  4.38238808E-06,
                      -7.51919667E-08,  3.56680424E-11,  2.22579493E+04,
                       3.42763923E+01]),
                NASA([986.81, 5000.00],
                     [ 2.50352801E+01,  5.01811066E-02, -1.85129907E-05,
                       3.42197162E-09, -2.45594998E-13,  1.40091654E+04,
                      -1.08989338E+02])))

species(name=u'C6H10(651)',
        atoms='H:10 C:6',
        thermo=(NASA([100.00, 1020.63],
                     [ 9.97427413E-01,  5.59777045E-02, -2.05880600E-05,
                      -1.17182304E-08,  8.13452041E-12,  6.30749855E+03,
                       2.38941836E+01]),
                NASA([1020.63, 5000.00],
                     [ 1.33828218E+01,  2.83661253E-02, -1.07663110E-05,
                       1.95749020E-09, -1.36589418E-13,  2.68926840E+03,
                      -4.14511818E+01])))

species(name=u'C8H12(652)',
        atoms='H:12 C:8',
        thermo=(NASA([100.00, 1002.94],
                     [ 1.69489980E-02,  7.28189377E-02, -2.16585698E-05,
                      -2.40807783E-08,  1.44597041E-11,  1.38562447E+04,
                       3.07679077E+01]),
                NASA([1002.94, 5000.00],
                     [ 1.77276883E+01,  3.45993801E-02, -1.29781828E-05,
                       2.37500136E-09, -1.67643536E-13,  8.67334638E+03,
                      -6.28559377E+01])))

species(name=u'S(655)',
        atoms='H:14 C:10',
        thermo=(NASA([100.00, 988.70],
                     [-1.28102885E+00,  9.73401935E-02, -3.96908570E-05,
                      -2.28883979E-08,  1.70599250E-11,  2.01333918E+04,
                       3.80613736E+01]),
                NASA([988.70, 5000.00],
                     [ 2.35618068E+01,  3.86218834E-02, -1.40063814E-05,
                       2.54246809E-09, -1.80004061E-13,  1.31784885E+04,
                      -9.18377566E+01])))

species(name=u'C6H10(821)',
        atoms='H:10 C:6',
        thermo=(NASA([100.00, 972.85],
                     [ 1.89244481E+00,  2.85669745E-02,  5.75234916E-05,
                      -9.12214688E-08,  3.58039628E-11,  1.00464014E+04,
                       2.05342237E+01]),
                NASA([972.85, 5000.00],
                     [ 1.27401301E+01,  2.82094400E-02, -1.01441048E-05,
                       1.89804962E-09, -1.39065424E-13,  5.84206841E+03,
                      -4.22616881E+01])))

species(name=u'S(865)',
        atoms='H:16 C:10',
        thermo=(NASA([100.00, 1108.32],
                     [-1.44473235E+00,  1.03798435E-01, -5.65964890E-05,
                       4.34646190E-09,  4.37524971E-12,  2.82264550E+04,
                       4.24341671E+01]),
                NASA([1108.32, 5000.00],
                     [ 2.03420713E+01,  5.11365588E-02, -2.04694340E-05,
                       3.75620247E-09, -2.60245904E-13,  2.18021880E+04,
                      -7.21104641E+01])))

species(name=u'S(888)',
        atoms='H:18 C:12',
        thermo=(NASA([100.00, 1036.33],
                     [-2.10306944E+00,  1.14775982E-01, -4.59334077E-05,
                      -1.72502661E-08,  1.35857890E-11,  3.03250471E+04,
                       4.76898333E+01]),
                NASA([1036.33, 5000.00],
                     [ 2.20224511E+01,  6.03838575E-02, -2.32592401E-05,
                       4.22263813E-09, -2.92973707E-13,  2.32450439E+04,
                      -7.95962776E+01])))

species(name=u'S(889)',
        atoms='H:18 C:12',
        thermo=(NASA([100.00, 1043.00],
                     [-2.42964735E+00,  1.21600857E-01, -5.92243817E-05,
                      -7.36232612E-09,  1.08372833E-11,  3.04699784E+04,
                       4.98767523E+01]),
                NASA([1043.00, 5000.00],
                     [ 2.40506793E+01,  5.80556061E-02, -2.24990947E-05,
                       4.10281233E-09, -2.85477268E-13,  2.28787528E+04,
                      -8.89013084E+01])))

species(name=u'S(1018)',
        atoms='H:12 C:8',
        thermo=(NASA([100.00, 1016.52],
                     [-1.10429280E-01,  7.70814645E-02, -3.47833140E-05,
                      -1.00302869E-08,  9.42640217E-12,  1.21750142E+04,
                       2.97645889E+01]),
                NASA([1016.52, 5000.00],
                     [ 1.75623558E+01,  3.50022757E-02, -1.32158186E-05,
                       2.40320183E-09, -1.68059077E-13,  7.16317806E+03,
                      -6.27651255E+01])))

species(name=u'S(1209)',
        atoms='H:16 C:10',
        thermo=(NASA([100.00, 1529.33],
                     [-1.27998659E+00,  1.07061427E-01, -7.54810852E-05,
                       2.76060942E-08, -4.15562285E-12,  9.21403976E+03,
                       4.00297764E+01]),
                NASA([1529.33, 5000.00],
                     [ 2.00858107E+01,  5.11784182E-02, -2.06695808E-05,
                       3.71251848E-09, -2.49716375E-13,  2.67899727E+03,
                      -7.21245779E+01])))

species(name=u'S(1216)',
        atoms='H:16 C:10',
        thermo=(NASA([100.00, 1123.67],
                     [-1.31764698E+00,  1.00170049E-01, -4.80609638E-05,
                      -2.83806667E-09,  6.28995927E-12,  9.62629007E+03,
                       3.99206955E+01]),
                NASA([1123.67, 5000.00],
                     [ 2.04321070E+01,  5.14203040E-02, -2.12619918E-05,
                       3.97217292E-09, -2.77843846E-13,  2.92812856E+03,
                      -7.56004118E+01])))

species(name=u'S(1628)',
        atoms='H:18 C:12',
        thermo=(NASA([100.00, 1634.85],
                     [-2.85274644E+00,  1.30833811E-01, -9.34502906E-05,
                       3.34049144E-08, -4.79437038E-12,  1.74953430E+04,
                       4.89402411E+01]),
                NASA([1634.85, 5000.00],
                     [ 2.96645767E+01,  5.12731583E-02, -2.04519219E-05,
                       3.63720237E-09, -2.42299421E-13,  6.86318987E+03,
                      -1.23920861E+02])))

species(name=u'S(1703)',
        atoms='H:15 C:10',
        thermo=(NASA([100.00, 1007.72],
                     [-1.16320066E+00,  9.60692846E-02, -3.60642825E-05,
                      -2.11561853E-08,  1.49081946E-11,  1.93589451E+04,
                       3.98193940E+01]),
                NASA([1007.72, 5000.00],
                     [ 2.07708951E+01,  4.62520796E-02, -1.73533338E-05,
                       3.14374887E-09, -2.19562162E-13,  1.30470367E+04,
                      -7.55522801E+01])))

species(name=u'C2H6(2020)',
        atoms='H:6 C:2',
        thermo=(NASA([100.00, 1012.42],
                     [ 3.72239291E+00,  1.65083841E-03,  3.44175530E-05,
                      -3.76858229E-08,  1.24450657E-11, -1.15575901E+04,
                       4.68247999E+00]),
                NASA([1012.42, 5000.00],
                     [ 2.82848257E+00,  1.73040568E-02, -6.73334245E-06,
                       1.23742024E-09, -8.65676410E-14, -1.19978080E+04,
                       5.93811707E+00])))

species(name=u'S(2539)',
        atoms='H:14 C:8',
        thermo=(NASA([100.00, 999.32],
                     [-8.27296041E-02,  7.33926821E-02, -9.70961131E-06,
                      -3.77339221E-08,  1.91784792E-11, -2.27794802E+03,
                       3.16114703E+01]),
                NASA([999.32, 5000.00],
                     [ 1.74908493E+01,  3.99675318E-02, -1.49508424E-05,
                       2.72972667E-09, -1.92366979E-13, -7.63361766E+03,
                      -6.23819175E+01])))

species(name=u'S(3685)',
        atoms='H:14 C:8',
        thermo=(NASA([100.00, 1679.81],
                     [ 1.34479463E-01,  8.12807397E-02, -5.06581179E-05,
                       1.60740811E-08, -2.12003077E-12, -4.14905031E+02,
                       3.03348271E+01]),
                NASA([1679.81, 5000.00],
                     [ 1.52493559E+01,  4.52883876E-02, -1.85180252E-05,
                       3.31846314E-09, -2.21633288E-13, -5.49286133E+03,
                      -5.04253072E+01])))

species(name=u'S(3857)',
        atoms='H:16 C:12',
        thermo=(NASA([100.00, 960.50],
                     [-1.70057280E+00,  9.29752092E-02,  3.07366952E-05,
                      -1.14362592E-07,  5.26068008E-11,  1.96826161E+04,
                       3.44657052E+01]),
                NASA([960.50, 5000.00],
                     [ 2.95255738E+01,  4.22239513E-02, -1.38325464E-05,
                       2.51874141E-09, -1.85606530E-13,  1.00266071E+04,
                      -1.33963392E+02])))

species(name=u'S(4138)',
        atoms='H:14 C:8',
        thermo=(NASA([100.00, 1059.72],
                     [-1.16833915E-01,  7.71820918E-02, -2.83832925E-05,
                      -1.28024877E-08,  8.98711085E-12, -2.79373927E+03,
                       3.15436459E+01]),
                NASA([1059.72, 5000.00],
                     [ 1.57756719E+01,  4.31430083E-02, -1.69315095E-05,
                       3.09975172E-09, -2.15530139E-13, -7.61906801E+03,
                      -5.29248602E+01])))

species(name=u'S(4642)',
        atoms='H:20 C:12',
        thermo=(NASA([100.00, 1239.97],
                     [-2.97950367E+00,  1.33697185E-01, -8.55821262E-05,
                       2.27749693E-08, -1.09520553E-12,  2.92346924E+03,
                       4.95963497E+01]),
                NASA([1239.97, 5000.00],
                     [ 2.61150842E+01,  6.18212576E-02, -2.52225311E-05,
                       4.61841142E-09, -3.16774447E-13, -5.98154205E+03,
                      -1.03839679E+02])))

species(name=u'S(4743)',
        atoms='H:20 C:12',
        thermo=(NASA([100.00, 1113.25],
                     [-2.97686302E+00,  1.34313391E-01, -8.43538363E-05,
                       1.76260426E-08,  1.85287718E-12, -1.81415663E+02,
                       4.97802882E+01]),
                NASA([1113.25, 5000.00],
                     [ 2.52315357E+01,  6.12694629E-02, -2.40804675E-05,
                       4.37528865E-09, -3.01379644E-13, -8.21636492E+03,
                      -9.72146124E+01])))

species(name=u'S(5048)',
        atoms='H:12 C:8',
        thermo=(NASA([100.00, 966.56],
                     [-1.28183216E-01,  7.35572918E-02, -1.44333618E-05,
                      -3.89698452E-08,  2.17299794E-11,  1.04422483E+04,
                       2.89601759E+01]),
                NASA([966.56, 5000.00],
                     [ 2.02785414E+01,  2.99584765E-02, -1.01704686E-05,
                       1.81720743E-09, -1.29537878E-13,  4.58909334E+03,
                      -7.86679341E+01])))

species(name=u'S(5114)',
        atoms='H:14 C:8',
        thermo=(NASA([100.00, 1014.29],
                     [-3.67121846E-01,  8.14233516E-02, -3.11110886E-05,
                      -1.65487757E-08,  1.19185866E-11, -3.02333684E+03,
                       3.00035003E+01]),
                NASA([1014.29, 5000.00],
                     [ 1.79686767E+01,  3.98264136E-02, -1.50150741E-05,
                       2.72531006E-09, -1.90287561E-13, -8.32275149E+03,
                      -6.65042554E+01])))

species(name=u'C4H8(5196)',
        atoms='H:8 C:4',
        thermo=(NASA([100.00, 1061.33],
                     [ 2.52504770E+00,  2.64752782E-02,  7.08359238E-06,
                      -2.07731462E-08,  8.00430055E-12, -4.02607130E+03,
                       1.28857274E+01]),
                NASA([1061.33, 5000.00],
                     [ 6.48672669E+00,  2.49943921E-02, -9.83283171E-06,
                       1.79343299E-09, -1.24008235E-13, -5.62452310E+03,
                      -1.00316397E+01])))

species(name=u'S(5866)',
        atoms='H:14 C:8',
        thermo=(NASA([100.00, 1506.76],
                     [ 5.49675181E-02,  8.43985440E-02, -5.64633487E-05,
                       1.98661295E-08, -2.94599969E-12, -7.77393079E+02,
                       2.95663347E+01]),
                NASA([1506.76, 5000.00],
                     [ 1.39949012E+01,  4.73919655E-02, -1.96226018E-05,
                       3.56583689E-09, -2.41458224E-13, -4.97819756E+03,
                      -4.34005510E+01])))

species(name=u'S(6365)',
        atoms='H:18 C:12',
        thermo=(NASA([100.00, 1043.00],
                     [-2.42964735E+00,  1.21600857E-01, -5.92243817E-05,
                      -7.36232612E-09,  1.08372833E-11,  3.04699784E+04,
                       4.98767523E+01]),
                NASA([1043.00, 5000.00],
                     [ 2.40506793E+01,  5.80556061E-02, -2.24990947E-05,
                       4.10281233E-09, -2.85477268E-13,  2.28787528E+04,
                      -8.89013084E+01])))

species(name=u'S(6368)',
        atoms='H:18 C:12',
        thermo=(NASA([100.00, 1043.00],
                     [-2.42964735E+00,  1.21600857E-01, -5.92243817E-05,
                      -7.36232612E-09,  1.08372833E-11,  3.04699784E+04,
                       4.98767523E+01]),
                NASA([1043.00, 5000.00],
                     [ 2.40506793E+01,  5.80556061E-02, -2.24990947E-05,
                       4.10281233E-09, -2.85477268E-13,  2.28787528E+04,
                      -8.89013084E+01])))

species(name=u'X(1)',
        atoms='X:1',
        thermo=(NASA([100.00, 1554.80],
                     [ 7.10139498E-03, -4.25619522E-05,  8.98533016E-08,