units(length='cm', time='s', quantity='mol', act_energy='kcal/mol')

ideal_gas(name='gas',
          elements="H D T C Ci O Oi N Ne Ar He Si S Cl X",
          species="""n-heptane   Ar          He          Ne
                     N2          C2H4(2)     C4H8-1(3)   C4H8-2(4)
                     C4H6(7)     C4H6a(79)   C6H10(133)  C8H12(134)""",
          reactions='gas-*',
          initial_state=state(temperature=300.0, pressure=OneAtm))

ideal_interface(name='surface1',
                elements="H D T C Ci O Oi N Ne Ar He Si S Cl X",
                species="""X(1)        HX(5)       C2H3X(37)   C4H5X(80)
                          C4H5X(81)   C6H9X(98)   C6H9X(115)  SX(120)
                          SX(121)     C6H9X(124)  SX(185)     SX(187)
                          SX(190)     SX(296)     SX(323)     SX(335)
                          SX(336)     SX(337)     SX(339)     SX(382)
                          SX(383)     SX(387)     SX(392)     SX(393)
                          SX(397)     SX(412)     SX(417)     SX(423)
                          SX(424)     SX(432)     C6H9X(441)  C6H9X(457)
                          C6H9X(458)  C6H9X(459)  SX(461)     SX(466)
                          SX(467)     C6H9X(505)  SX(510)     SX(516)
                          SX(517)     C6H9X(527)  C6H9X(528)  SX(531)
                          SX(535)     SX(536)     SX(562)     SX(569)
                          SX(576)     SX(589)     SX(598)     SX(605)
                          SX(606)     SX(613)     SX(614)     SX(623)
                          SX(646)     SX(653)     SX(665)     SX(666)
                          SX(674)     SX(681)     SX(692)     SX(693)
                          SX(735)     SX(741)     SX(742)     SX(748)
                          SX(754)     SX(755)     SX(756)     SX(768)
                          SX(769)     SX(770)     SX(771)     SX(788)
                          SX(789)     SX(796)     SX(797)     SX(805)
                          SX(806)     SX(827)     SX(924)     SX(926)
                          SX(935)     SX(936)     SX(937)     SX(938)
                          SX(972)     SX(973)     SX(1006)    SX(1007)
                          SX(1008)    SX(1021)    SX(1022)    SX(1023)
                          SX(1026)    SX(1069)    SX(1070)    SX(1085)
                          SX(1086)    SX(1103)    SX(1104)    SX(1105)
                          SX(1118)    SX(1119)    SX(1133)    SX(1148)
                          SX(1149)    SX(1150)    SX(1174)    SX(1226)
                          SX(1227)    SX(1404)    SX(1412)    SX(1413)
                          SX(1414)    SX(1415)    SX(1416)    SX(1423)
                          SX(1424)    SX(1432)    SX(1433)    SX(1434)
                          SX(1442)    SX(1443)    SX(1444)    SX(1452)
                          SX(1453)    SX(1463)    SX(1464)    SX(1485)
                          SX(1486)    SX(1498)    SX(1499)    SX(1508)
                          SX(1509)    SX(1510)    SX(1518)    SX(1519)
                          SX(1520)    SX(1530)    SX(1531)    SX(1538)
                          SX(1551)    SX(1552)    SX(1553)    SX(1565)
                          SX(1566)    SX(1567)    SX(1576)    SX(1577)
                          SX(1589)    SX(1599)    SX(1600)    SX(1609)
                          SX(1614)    SX(1615)    SX(1624)    SX(1625)
                          SX(1630)    SX(1636)    SX(1642)    SX(1643)
                          SX(1674)    SX(1698)    SX(1699)    SX(1723)
                          SX(1736)    SX(1737)    SX(1759)    SX(1760)
                          SX(1804)    SX(1805)    SX(1846)    SX(1847)
                          SX(1916)    SX(1922)    SX(1923)    SX(1928)
                          SX(1933)    SX(1944)    SX(1949)    SX(1960)
                          SX(1961)    SX(1962)    SX(1971)    SX(1972)
                          SX(1973)    SX(1978)    SX(1985)    SX(1986)
                          SX(1987)    SX(1991)    SX(1992)    SX(1999)
                          SX(2012)    SX(2013)    SX(2014)    SX(2022)
                          SX(2023)    SX(2030)    SX(2031)    SX(2036)
                          SX(2037)    SX(2038)    SX(2044)    SX(2045)
                          SX(2046)    SX(2063)    SX(2064)    SX(2074)
                          SX(2075)    SX(2081)    SX(2082)    SX(2083)
                          SX(2088)    SX(2095)    SX(2096)    SX(2102)
                          SX(2107)    SX(2123)    SX(2132)    SX(2140)
                          SX(2147)    SX(2148)    SX(2149)    SX(2154)
                          SX(2155)    SX(2156)    SX(2167)    SX(2168)
                          SX(2175)    SX(2176)    SX(2177)    SX(2180)
                          SX(2191)    SX(2192)    SX(2193)    SX(2208)
                          SX(2216)    SX(2217)    SX(2240)    SX(2241)
                          SX(2245)    SX(2246)    SX(2247)    SX(2261)
                          SX(2268)    SX(2278)    SX(2279)    SX(2328)
                          SX(2329)    SX(2335)    SX(2344)    SX(2346)
                          SX(2351)    SX(2352)    SX(2382)    SX(2383)
                          SX(2390)    SX(2410)    SX(2411)    SX(2429)
                          SX(2430)    SX(2444)    SX(2446)    SX(2454)
                          SX(2455)    SX(2457)    SX(2462)    SX(2463)
                          SX(2508)    SX(2509)    SX(2517)    SX(2519)
                          SX(2531)    SX(2532)    SX(2533)    SX(2549)
                          SX(2570)    SX(2605)    SX(2606)    SX(2620)
                          SX(2622)    SX(2627)    SX(2628)    SX(2636)
                          SX(2710)""",
                site_density=2.72e-09,
                phases="gas",
          reactions='surface1-*',
                initial_state=state(temperature=300.0, pressure=OneAtm))

#-------------------------------------------------------------------------------
# Element data
#-------------------------------------------------------------------------------

element(symbol=u'X', atomic_mass=195.083)
element(symbol=u'Ci', atomic_mass=13.003)
element(symbol=u'D', atomic_mass=2.014)
element(symbol=u'Oi', atomic_mass=18.0)
element(symbol=u'T', atomic_mass=3.016)
#-------------------------------------------------------------------------------
# Species data
#-------------------------------------------------------------------------------

species(name=u'n-heptane',
        atoms='H:16 C:7',
        thermo=(NASA([100.00, 1262.75],
                     [-2.93512125E-03,  7.69375610E-02, -3.48031525E-05,
                       1.86160506E-09,  2.01550529E-12, -2.57829334E+04,
                       3.00312819E+01]),
                NASA([1262.75, 5000.00],
                     [ 1.38379971E+01,  4.85941816E-02, -1.95472819E-05,
                       3.52833289E-09, -2.39061569E-13, -3.05142526E+04,
                      -4.48654615E+01])))

species(name=u'Ar',
        atoms='Ar:1',
        thermo=(NASA([200.00, 1000.00],
                     [ 2.50000000E+00,  0.00000000E+00,  0.00000000E+00,
                       0.00000000E+00,  0.00000000E+00, -7.45375000E+02,
                       4.37967000E+00]),
                NASA([1000.00, 6000.00],
                     [ 2.50000000E+00,  0.00000000E+00,  0.00000000E+00,
                       0.00000000E+00,  0.00000000E+00, -7.45375000E+02,
                       4.37967000E+00])))

species(name=u'He',
        atoms='He:1',
        thermo=(NASA([200.00, 1000.00],
                     [ 2.50000000E+00,  0.00000000E+00,  0.00000000E+00,
                       0.00000000E+00,  0.00000000E+00, -7.45375000E+02,
                       9.28724000E-01]),
                NASA([1000.00, 6000.00],
                     [ 2.50000000E+00,  0.00000000E+00,  0.00000000E+00,
                       0.00000000E+00,  0.00000000E+00, -7.45375000E+02,
                       9.28724000E-01])))

species(name=u'Ne',
        atoms='Ne:1',
        thermo=(NASA([200.00, 1000.00],
                     [ 2.50000000E+00,  0.00000000E+00,  0.00000000E+00,
                       0.00000000E+00,  0.00000000E+00, -7.45375000E+02,
                       3.35532000E+00]),
                NASA([1000.00, 6000.00],
                     [ 2.50000000E+00,  0.00000000E+00,  0.00000000E+00,
                       0.00000000E+00,  0.00000000E+00, -7.45375000E+02,
                       3.35532000E+00])))

species(name=u'N2',
        atoms='N:2',
        thermo=(NASA([200.00, 1000.00],
                     [ 3.53101000E+00, -1.23661000E-04, -5.02999000E-07,
                       2.43531000E-09, -1.40881000E-12, -1.04698000E+03,
                       2.96747000E+00]),
                NASA([1000.00, 6000.00],
                     [ 2.95258000E+00,  1.39690000E-03, -4.92632000E-07,
                       7.86010000E-11, -4.60755000E-15, -9.23949000E+02,
                       5.87189000E+00])))

species(name=u'C2H4(2)',
        atoms='H:4 C:2',
        thermo=(NASA([100.00, 979.37],
                     [ 3.97469045E+00, -4.75813325E-03,  4.16772624E-05,
                      -4.51377676E-08,  1.54218287E-11,  4.91540855E+03,
                       3.62439976E+00]),
                NASA([979.37, 5000.00],
                     [ 3.55670229E+00,  1.10625819E-02, -4.17009559E-06,
                       7.85564219E-10, -5.70042086E-14,  4.32042473E+03,
                       2.17665377E+00])))

species(name=u'C4H8-1(3)',
        atoms='H:8 C:4',
        thermo=(NASA([100.00, 1007.28],
                     [ 2.58772978E+00,  2.32777883E-02,  1.93412653E-05,
                      -3.55496729E-08,  1.36906178E-11, -1.91872929E+03,
                       1.45750592E+01]),
                NASA([1007.28, 5000.00],
                     [ 7.20516863E+00,  2.36361619E-02, -9.03150325E-06,
                       1.65392736E-09, -1.16019318E-13, -3.79733809E+03,
                      -1.24426086E+01])))

species(name=u'C4H8-2(4)',
        atoms='H:8 C:4',
        thermo=(NASA([100.00, 1157.78],
                     [ 2.51999305E+00,  2.76811707E-02,  9.44135366E-07,
                      -1.25013222E-08,  4.67160311E-12, -3.34374810E+03,
                       1.30195268E+01]),
                NASA([1157.78, 5000.00],
                     [ 6.04218222E+00,  2.60073554E-02, -1.04844041E-05,
                       1.90882450E-09, -1.30601743E-13, -4.86273126E+03,
                      -7.52672501E+00])))

species(name=u'C4H6(7)',
        atoms='H:6 C:4',
        thermo=(NASA([100.00, 946.05],
                     [ 2.80594317E+00,  1.02590609E-02,  6.17237648E-05,
                      -9.01611778E-08,  3.59103084E-11,  1.16584993E+04,
                       1.20623208E+01]),
                NASA([946.05, 5000.00],
                     [ 1.24695345E+01,  1.00551088E-02, -2.41190446E-06,
                       4.57038145E-10, -3.93127871E-14,  8.01071120E+03,
                      -4.36383840E+01])))

species(name=u'C4H6a(79)',
        atoms='H:6 C:4',
        thermo=(NASA([100.00, 950.39],
                     [ 3.41326055E+00, -4.60811681E-03,  9.57198641E-05,
                      -1.18799626E-07,  4.44491070E-11,  1.74039835E+04,
                       1.01518106E+01]),
                NASA([950.39, 5000.00],
                     [ 9.72161217E+00,  1.36878169E-02, -3.93837094E-06,
                       7.58697813E-10, -6.16002861E-14,  1.41795593E+04,
                      -3.06167313E+01])))

species(name=u'C6H10(133)',
        atoms='H:10 C:6',
        thermo=(NASA([100.00, 1020.64],
                     [ 9.97407792E-01,  5.59779371E-02, -2.05888747E-05,
                      -1.17171796E-08,  8.13407747E-12,  6.30749940E+03,
                       2.38942539E+01]),
                NASA([1020.64, 5000.00],
                     [ 1.33829093E+01,  2.83659778E-02, -1.07662265E-05,
                       1.95747034E-09, -1.36587777E-13,  2.68923113E+03,
                      -4.14516757E+01])))

species(name=u'C8H12(134)',
        atoms='H:12 C:8',
        thermo=(NASA([100.00, 1002.94],
                     [ 1.69470520E-02,  7.28189610E-02, -2.16586522E-05,
                      -2.40806705E-08,  1.44596580E-11,  1.38562448E+04,
                       3.07679147E+01]),
                NASA([1002.94, 5000.00],
                     [ 1.77276964E+01,  3.45993664E-02, -1.29781749E-05,
                       2.37499951E-09, -1.67643382E-13,  8.67334297E+03,
                      -6.28559833E+01])))

species(name=u'X(1)',
        atoms='X:1',
        thermo=(NASA([100.00, 1554.81],
                     [ 7.10134880E-03, -4.25615041E-05,  8.98521156E-08,
                      -7.80182565E-11,  2.32462166E-14, -8.76099414E-01,
                      -3.11209498E-02]),
                NASA([1554.81, 5000.00],
                     [ 1.60301287E-01, -2.52237396E-04,  1.14182282E-07,
                      -1.21473809E-11,  3.85806589E-16, -7.08108147E+01,
                      -9.09535600E-01])))

species(name=u'HX(5)',
        atoms='H:1 X:1',
        thermo=(NASA([100.00, 952.91],
                     [-3.80957846E-01,  5.47219393E-03,  2.60946928E-06,
                      -9.65008412E-09,  4.63967474E-12, -9.42254388E+03,
                       1.01722845E+00]),
                NASA([952.91, 5000.00],
                     [ 2.80337105E+00, -5.41002993E-04,  4.99482316E-07,
                      -7.54902555E-11,  3.06721398E-15, -1.03632825E+04,
                      -1.59435356E+01])))

species(name=u'C2H3X(37)',
        atoms='H:3 C:2 X:1',
        thermo=(NASA([100.00, 928.60],
                     [ 3.83104022E+00, -8.76542826E-03,  6.98017027E-05,
                      -8.68052566E-08,  3.33256145E-11,  2.32556993E+03,
                      -1.81156365E+01]),
                NASA([928.60, 5000.00],
                     [ 8.78015372E+00,  1.92565992E-03,  8.25424482E-07,
                      -1.63654020E-10,  5.70926320E-15,  2.63319032E+01,
                      -4.90566656E+01])))

species(name=u'C4H5X(80)',
        atoms='H:5 C:4 X:1',
        thermo=(NASA([100.00, 936.52],
                     [ 2.68471814E+00,  1.36244384E-02,  5.32592262E-05,
                      -8.32913017E-08,  3.41499632E-11,  4.41880561E+03,
                      -1.06510519E+01]),
                NASA([936.52, 5000.00],
                     [ 1.29012238E+01,  8.96922349E-03, -1.71920361E-06,
                       2.89745198E-10, -2.58686934E-14,  7.95767854E+02,
                      -6.83963240E+01])))

species(name=u'C4H5X(81)',
        atoms='H:5 C:4 X:1',
        thermo=(NASA([100.00, 928.62],
                     [ 2.64239936E+00,  8.31017311E-03,  8.12180670E-05,
                      -1.21403473E-07,  4.98652517E-11,  9.60171124E+03,
                      -1.03935602E+01]),
                NASA([928.62, 5000.00],
                     [ 1.69488231E+01,  2.00857887E-03,  2.03445917E-06,
                      -4.02602194E-10,  1.85354193E-14,  4.55931136E+03,
                      -9.11978215E+01])))

species(name=u'C6H9X(98)',
        atoms='H:9 C:6 X:1',
        thermo=(NASA([100.00, 959.60],
                     [ 9.97331794E-01,  5.45666106E-02, -1.20055408E-05,
                      -2.57207249E-08,  1.47247298E-11,  1.16260736E+04,
                       4.10399517E+00]),
                NASA([959.60, 5000.00],
                     [ 1.47073062E+01,  2.48051643E-02, -8.29412710E-06,
                       1.44241037E-09, -1.00347533E-13,  7.73389602E+03,
                      -6.80435427E+01])))

species(name=u'C6H9X(115)',
        atoms='H:9 C:6 X:1',
        thermo=(NASA([100.00, 995.65],
                     [ 1.00156767E+00,  5.37833423E-02, -1.05083627E-05,
                      -2.52890803E-08,  1.36191022E-11,  1.11035817E+04,
                       4.73933245E+00]),
                NASA([995.65, 5000.00],
                     [ 1.48280231E+01,  2.56880474E-02, -9.53960436E-06,
                       1.75503504E-09, -1.24934189E-13,  6.98963276E+03,
                      -6.87382183E+01])))

species(name=u'SX(120)',
        atoms='H:11 C:8 X:1',
        thermo=(NASA([100.00, 970.37],
                     [ 5.31888753E-02,  6.71974460E-02,  4.47967233E-06,
                      -5.81686632E-08,  2.81729684E-11,  1.08698377E+04,
                       9.58549953E+00]),
                NASA([970.37, 5000.00],
                     [ 2.04532044E+01,  2.99984680E-02, -1.05050701E-05,
                       1.92654254E-09, -1.39849888E-13,  4.70297782E+03,
                      -9.95950068E+01])))

species(name=u'SX(121)',
        atoms='H:11 C:8 X:1',
        thermo=(NASA([100.00, 978.48],
                     [-2.03188329E-01,  8.00305306E-02, -4.14445305E-05,
                      -6.30400942E-09,  9.29379931E-12,  1.76124433E+04,
                       9.78673596E+00]),
                NASA([978.48, 5000.00],
                     [ 1.79003685E+01,  3.33652588E-02, -1.18215599E-05,
                       2.07054535E-09, -1.42297671E-13,  1.27607781E+04,
                      -8.38469130E+01])))

species(name=u'C6H9X(124)',
        atoms='H:9 C:6 X:1',
        thermo=(NASA([100.00, 982.39],
                     [ 1.17196924E+00,  4.77163336E-02,  9.25993257E-06,
                      -4.64652305E-08,  2.11960917E-11,  3.38610365E+03,
                       1.23448531E+00]),
                NASA([982.39, 5000.00],
                     [ 1.50561182E+01,  2.55319447E-02, -9.31171984E-06,
                       1.72742083E-09, -1.24863595E-13, -9.99272714E+02,
                      -7.39375821E+01])))

species(name=u'SX(185)',
        atoms='H:11 C:8 X:1',
        thermo=(NASA([100.00, 970.37],
                     [ 5.31888753E-02,  6.71974460E-02,  4.47967233E-06,
                      -5.81686632E-08,  2.81729684E-11,  1.08698377E+04,
                       9.58549953E+00]),
                NASA([970.37, 5000.00],
                     [ 2.04532044E+01,  2.99984680E-02, -1.05050701E-05,
                       1.92654254E-09, -1.39849888E-13,  4.70297782E+03,
                      -9.95950068E+01])))

species(name=u'SX(187)',
        atoms='H:11 C:8 X:1',
        thermo=(NASA([100.00, 971.40],
                     [ 1.41381563E-02,  6.90601464E-02, -2.81816593E-06,
                      -5.01496480E-08,  2.53089095E-11,  1.03303637E+04,
                       7.57444528E+00]),
                NASA([971.40, 5000.00],
                     [ 2.02696948E+01,  2.98290181E-02, -1.04553389E-05,
                       1.90870667E-09, -1.37813194E-13,  4.31084356E+03,
                      -1.00287380E+02])))

species(name=u'SX(190)',
        atoms='H:11 C:8 X:1',
        thermo=(NASA([100.00, 962.25],
                     [-2.36809030E-02,  6.79479401E-02,  5.43927119E-06,
                      -6.22121258E-08,  3.04405256E-11,  1.14466289E+04,
                       7.63963110E+00]),
                NASA([962.25, 5000.00],
                     [ 2.16695172E+01,  2.75463981E-02, -9.17246115E-06,
                       1.66770016E-09, -1.22177011E-13,  4.96733558E+03,
                      -1.08156892E+02])))

species(name=u'SX(296)',
        atoms='H:11 C:8 X:1',
        thermo=(NASA([100.00, 1054.52],
                     [ 9.24766229E-02,  7.30389347E-02, -3.01362785E-05,
                      -1.01291856E-08,  8.20786822E-12,  1.29071413E+04,
                       8.19855900E+00]),
                NASA([1054.52, 5000.00],
                     [ 1.61726836E+01,  3.71410136E-02, -1.47733153E-05,
                       2.72795371E-09, -1.90937222E-13,  8.12033440E+03,
                      -7.68491962E+01])))

species(name=u'SX(323)',
        atoms='H:11 C:8 X:1',
        thermo=(NASA([100.00, 962.38],
                     [ 8.45069892E-02,  6.47446189E-02,  1.48977118E-05,
                      -7.13211228E-08,  3.34363738E-11,  1.02719488E+04,
                       1.32646517E+01]),
                NASA([962.38, 5000.00],
                     [ 2.13382535E+01,  2.84075644E-02, -9.51706362E-06,
                       1.73791617E-09, -1.27638402E-13,  3.77300204E+03,
                      -1.00968625E+02])))

species(name=u'SX(335)',
        atoms='H:11 C:8 X:1',
        thermo=(NASA([100.00, 959.69],
                     [ 5.32246445E-01,  5.42639752E-02,  3.83249058E-05,
                      -9.08746173E-08,  3.93655936E-11,  6.42233653E+03,
                       1.48333630E+01]),
                NASA([959.69, 5000.00],
                     [ 1.90567732E+01,  3.12727956E-02, -1.04852315E-05,
                       1.90260866E-09, -1.38803322E-13,  3.69978500E+02,
                      -8.67829692E+01])))

species(name=u'SX(336)',
        atoms='H:11 C:8 X:1',
        thermo=(NASA([100.00, 964.21],
                     [ 3.33890869E-01,  6.07880345E-02,  1.91672863E-05,
                      -7.07130080E-08,  3.21492537E-11,  6.83768411E+03,
                       9.16207993E+00]),
                NASA([964.21, 5000.00],
                     [ 1.88970061E+01,  3.19795577E-02, -1.09998165E-05,
                       1.98959421E-09, -1.43313752E-13,  1.01734957E+03,
                      -9.13364295E+01])))

species(name=u'SX(337)',
        atoms='H:11 C:8 X:1',
        thermo=(NASA([100.00, 1018.49],
                     [ 7.35950350E-02,  7.17317096E-02, -2.13473587E-05,
                      -2.26300689E-08,  1.34027968E-11,  1.40225686E+04,
                       8.19411542E+00]),
                NASA([1018.49, 5000.00],
                     [ 1.73280384E+01,  3.52579279E-02, -1.37142817E-05,
                       2.53870296E-09, -1.79524544E-13,  8.88492755E+03,
                      -8.33321247E+01])))

species(name=u'SX(339)',
        atoms='H:15 C:10 X:1',
        thermo=(NASA([100.00, 1586.72],
                     [-1.60278274E+00,  1.08534986E-01, -7.71834215E-05,
                       2.80105214E-08, -4.12153183E-12,  1.38726619E+04,
                       2.20450205E+01]),
                NASA([1586.72, 5000.00],
                     [ 2.31739502E+01,  4.60746385E-02, -1.81366685E-05,
                       3.20175749E-09, -2.12713372E-13,  6.00992633E+03,
                      -1.08927005E+02])))

species(name=u'SX(382)',
        atoms='H:11 C:8 X:1',
        thermo=(NASA([100.00, 1018.85],
                     [ 2.32564437E-01,  6.53481010E-02, -5.06250145E-07,
                      -4.42653994E-08,  2.06579336E-11,  2.04395044E+04,
                       1.00683184E+01]),
                NASA([1018.85, 5000.00],
                     [ 1.79598143E+01,  3.52054635E-02, -1.42160622E-05,
                       2.71408342E-09, -1.96097754E-13,  1.47794451E+04,
                      -8.58359628E+01])))

species(name=u'SX(383)',
        atoms='H:11 C:8 X:1',
        thermo=(NASA([100.00, 1058.51],
                     [ 2.77433561E-01,  6.83910853E-02, -1.84634338E-05,
                      -1.98727096E-08,  1.09633681E-11,  1.35117884E+04,
                       8.01793261E+00]),
                NASA([1058.51, 5000.00],
                     [ 1.52785062E+01,  3.91239359E-02, -1.58465575E-05,
                       2.95215026E-09, -2.07520787E-13,  8.79989096E+03,
                      -7.24627289E+01])))

species(name=u'SX(387)',
        atoms='H:15 C:10 X:1',
        thermo=(NASA([100.00, 1073.62],
                     [-1.28421643E+00,  9.76517663E-02, -3.70754687E-05,
                      -1.71949133E-08,  1.19279218E-11,  1.44215148E+04,
                       2.06619149E+01]),
                NASA([1073.62, 5000.00],
                     [ 2.12795672E+01,  4.97019489E-02, -2.05426252E-05,
                       3.87226077E-09, -2.73919005E-13,  7.49504177E+03,
                      -9.94919380E+01])))

species(name=u'SX(392)',
        atoms='H:17 C:12 X:1',
        thermo=(NASA([100.00, 1060.62],
                     [-2.40276981E+00,  1.18142110E-01, -4.69813675E-05,
                      -2.04685774E-08,  1.49207887E-11,  1.61767852E+04,
                       2.76951530E+01]),
                NASA([1060.62, 5000.00],
                     [ 2.57627574E+01,  5.66496308E-02, -2.32748022E-05,
                       4.39307975E-09, -3.11827781E-13,  7.68628644E+03,
                      -1.21705415E+02])))

species(name=u'SX(393)',
        atoms='H:17 C:12 X:1',
        thermo=(NASA([100.00, 1037.64],
                     [-2.38830725E+00,  1.18992949E-01, -5.10379186E-05,
                      -1.72853719E-08,  1.45002961E-11,  2.31339845E+04,
                       2.93337294E+01]),
                NASA([1037.64, 5000.00],
                     [ 2.51820871E+01,  5.58023959E-02, -2.19811237E-05,
                       4.06652581E-09, -2.86132503E-13,  1.50925598E+04,
                      -1.15874364E+02])))

species(name=u'SX(397)',
        atoms='H:11 C:8 X:1',
        thermo=(NASA([100.00, 1054.52],
                     [ 9.24766229E-02,  7.30389347E-02, -3.01362785E-05,
                      -1.01291856E-08,  8.20786822E-12,  1.29071413E+04,
                       7.50541182E+00]),
                NASA([1054.52, 5000.00],
                     [ 1.61726836E+01,  3.71410136E-02, -1.47733153E-05,
                       2.72795371E-09, -1.90937222E-13,  8.12033440E+03,
                      -7.75423434E+01])))

species(name=u'SX(412)',
        atoms='H:11 C:8 X:1',
        thermo=(NASA([100.00, 992.83],
                     [ 2.85097413E-01,  6.44368905E-02,  1.22819683E-06,
                      -4.75413540E-08,  2.26047598E-11,  1.25338864E+04,
                       9.36996115E+00]),
                NASA([992.83, 5000.00],
                     [ 1.78283261E+01,  3.37150408E-02, -1.27260631E-05,
                       2.36602876E-09, -1.69757111E-13,  7.08106016E+03,
                      -8.50575550E+01])))

species(name=u'SX(417)',
        atoms='H:15 C:10 X:1',
        thermo=(NASA([100.00, 1586.36],
                     [-1.62346335E+00,  1.08653254E-01, -7.74259471E-05,
                       2.81570813E-08, -4.14871147E-12,  1.40264023E+04,
                       2.21471896E+01]),
                NASA([1586.36, 5000.00],
                     [ 2.33171496E+01,  4.57642020E-02, -1.79591911E-05,
                       3.16566173E-09, -2.10138715E-13,  6.11362064E+03,
                      -1.09684943E+02])))

species(name=u'SX(423)',
        atoms='H:17 C:12 X:1',
        thermo=(NASA([100.00, 1191.62],
                     [-2.69318183E+00,  1.28725129E-01, -8.65724635E-05,
                       2.48187999E-08, -1.47331558E-12,  1.57792787E+04,
                       2.89943924E+01]),
                NASA([1191.62, 5000.00],
                     [ 2.50748768E+01,  5.68069398E-02, -2.28457269E-05,
                       4.16138965E-09, -2.85398959E-13,  7.64972244E+03,
                      -1.16181848E+02])))

species(name=u'SX(424)',
        atoms='H:17 C:12 X:1',
        thermo=(NASA([100.00, 1147.08],
                     [-2.66908630E+00,  1.29523997E-01, -9.07317618E-05,
                       2.85295195E-08, -2.27992959E-12,  2.27359629E+04,
                       3.05942465E+01]),
                NASA([1147.08, 5000.00],
                     [ 2.40118080E+01,  5.67062387E-02, -2.19533248E-05,
                       3.92471730E-09, -2.66859243E-13,  1.52845626E+04,
                      -1.07585744E+02])))

species(name=u'SX(432)',
        atoms='H:15 C:10 X:1',
        thermo=(NASA([100.00, 1056.98],
                     [-1.26474726E+00,  9.85296432E-02, -4.23773371E-05,
                      -1.17924248E-08,  1.04370653E-11,  1.34926611E+04,
                       2.26741209E+01]),
                NASA([1056.98, 5000.00],
                     [ 2.05634899E+01,  4.91997770E-02, -1.95947227E-05,
                       3.62281309E-09, -2.53759765E-13,  7.01943051E+03,
                      -9.26372235E+01])))

species(name=u'C6H9X(441)',
        atoms='H:9 C:6 X:1',
        thermo=(NASA([100.00, 973.86],
                     [ 9.93853808E-01,  5.22730004E-02, -2.04167193E-06,
                      -3.72843678E-08,  1.87186568E-11,  3.32364037E+03,
                       7.46112008E-01]),
                NASA([973.86, 5000.00],
                     [ 1.59748472E+01,  2.35120824E-02, -8.21911720E-06,
                       1.49898130E-09, -1.07948464E-13, -1.14826592E+03,
                      -7.91104196E+01])))

species(name=u'C6H9X(457)',
        atoms='H:9 C:6 X:1',
        thermo=(NASA([100.00, 944.03],
                     [ 1.50277097E+00,  3.39058696E-02,  5.74120017E-05,
                      -1.03070117E-07,  4.32467301E-11, -1.59084618E+03,
                       6.35745666E+00]),
                NASA([944.03, 5000.00],
                     [ 1.71766384E+01,  2.05445069E-02, -5.65226413E-06,
                       9.93381056E-10, -7.58687316E-14, -6.91411593E+03,
                      -8.08776238E+01])))

species(name=u'C6H9X(458)',
        atoms='H:9 C:6 X:1',
        thermo=(NASA([100.00, 1255.20],
                     [ 1.52446345E+00,  4.66104054E-02, -6.16125493E-06,
                      -1.35480242E-08,  5.32029206E-12,  6.53136425E+02,
                       6.56712065E-01]),
                NASA([1255.20, 5000.00],
                     [ 9.78692876E+00,  3.78120380E-02, -1.65980592E-05,
                       3.12277874E-09, -2.16336637E-13, -2.80218692E+03,
                      -4.65844769E+01])))

species(name=u'C6H9X(459)',
        atoms='H:9 C:6 X:1',
        thermo=(NASA([100.00, 961.61],
                     [ 9.56140456E-01,  5.11597557E-02,  6.21824187E-06,
                      -4.93480271E-08,  2.38497187E-11,  4.43990092E+03,
                       8.10906609E-01]),
                NASA([961.61, 5000.00],
                     [ 1.73731438E+01,  2.12319844E-02, -6.93766407E-06,
                       1.25830622E-09, -9.23394528E-14, -4.91109394E+02,
                      -8.69712968E+01])))

species(name=u'SX(461)',
        atoms='H:13 C:8 X:1',
        thermo=(NASA([100.00, 1203.56],