units(length='cm', time='s', quantity='mol', act_energy='kcal/mol')

ideal_gas(name='gas',
          elements="H D T C Ci O Oi N Ne Ar He Si S Cl X",
          species="""n-heptane   Ar          He          Ne
                     N2          C2H4(2)     C4H8-1(3)   C4H8-2(4)
                     C4H6(7)     H2(68)      C6H8(111)   C8H10(114)
                     S(205)      S(216)      S(232)      C8H10(266)
                     S(473)      S(566)      S(644)      S(681)
                     S(759)      S(885)      S(940)      S(1149)
                     S(1194)     S(1324)     S(1399)     S(1435)
                     S(1492)     S(1562)     S(1563)     S(1887)
                     S(1944)     S(2119)     S(2170)     S(2200)
                     S(2278)     S(2293)     S(2297)     S(2478)
                     S(2485)     S(2594)     S(2601)     S(2608)
                     S(2609)     S(2643)     S(3133)     S(3135)""",
          reactions='gas-*',
          initial_state=state(temperature=300.0, pressure=OneAtm))

ideal_interface(name='surface1',
                elements="H D T C Ci O Oi N Ne Ar He Si S Cl X",
                species="""X(1)        HX(5)       C2H3X(37)   C4H5X(80)
                          C4H5X(81)   C6H7X(141)  C6H7X(143)  C8H9X(267)
                          C8H9X(269)  SX(698)     SX(701)     SX(702)
                          SX(804)     SX(806)     SX(844)     SX(847)
                          SX(904)     SX(905)     SX(906)     SX(937)
                          SX(1120)    SX(1122)    SX(1124)    SX(1140)
                          SX(1210)    SX(1215)    SX(1237)    SX(1296)
                          SX(1300)    SX(1318)    SX(1373)    SX(1469)
                          SX(1576)    SX(1577)    SX(1744)    SX(1937)
                          SX(1941)    SX(1987)    SX(1997)    SX(2042)
                          SX(2044)    SX(2113)    SX(2117)    SX(2220)
                          SX(2222)    SX(2263)    SX(2314)    SX(2319)
                          SX(2381)    SX(2442)    SX(2475)    SX(2476)
                          SX(2546)    SX(2552)    SX(2565)    SX(2685)
                          SX(2686)    SX(2687)    SX(2689)    SX(2690)
                          SX(2788)    SX(2789)    SX(2790)    SX(2830)
                          SX(2835)    SX(2848)    SX(2881)    SX(2882)
                          SX(3030)    SX(3130)    SX(3131)""",
                site_density=2.72e-09,
                phases="gas",
          reactions='surface1-*',
                initial_state=state(temperature=300.0, pressure=OneAtm))

#-------------------------------------------------------------------------------
# Element data
#-------------------------------------------------------------------------------

element(symbol=u'X', atomic_mass=195.083)
element(symbol=u'Ci', atomic_mass=13.003)
element(symbol=u'D', atomic_mass=2.014)
element(symbol=u'Oi', atomic_mass=18.0)
element(symbol=u'T', atomic_mass=3.016)
#-------------------------------------------------------------------------------
# Species data
#-------------------------------------------------------------------------------

species(name=u'n-heptane',
        atoms='H:16 C:7',
        thermo=(NASA([100.00, 1262.73],
                     [-2.91681405E-03,  7.69373649E-02, -3.48025563E-05,
                       1.86095180E-09,  2.01573617E-12, -2.57829342E+04,
                       3.00312148E+01]),
                NASA([1262.73, 5000.00],
                     [ 1.38377915E+01,  4.85945016E-02, -1.95474548E-05,
                       3.52837178E-09, -2.39064676E-13, -3.05141556E+04,
                      -4.48642836E+01])))

species(name=u'Ar',
        atoms='Ar:1',
        thermo=(NASA([200.00, 1000.00],
                     [ 2.50000000E+00,  0.00000000E+00,  0.00000000E+00,
                       0.00000000E+00,  0.00000000E+00, -7.45375000E+02,
                       4.37967000E+00]),
                NASA([1000.00, 6000.00],
                     [ 2.50000000E+00,  0.00000000E+00,  0.00000000E+00,
                       0.00000000E+00,  0.00000000E+00, -7.45375000E+02,
                       4.37967000E+00])))

species(name=u'He',
        atoms='He:1',
        thermo=(NASA([200.00, 1000.00],
                     [ 2.50000000E+00,  0.00000000E+00,  0.00000000E+00,
                       0.00000000E+00,  0.00000000E+00, -7.45375000E+02,
                       9.28724000E-01]),
                NASA([1000.00, 6000.00],
                     [ 2.50000000E+00,  0.00000000E+00,  0.00000000E+00,
                       0.00000000E+00,  0.00000000E+00, -7.45375000E+02,
                       9.28724000E-01])))

species(name=u'Ne',
        atoms='Ne:1',
        thermo=(NASA([200.00, 1000.00],
                     [ 2.50000000E+00,  0.00000000E+00,  0.00000000E+00,
                       0.00000000E+00,  0.00000000E+00, -7.45375000E+02,
                       3.35532000E+00]),
                NASA([1000.00, 6000.00],
                     [ 2.50000000E+00,  0.00000000E+00,  0.00000000E+00,
                       0.00000000E+00,  0.00000000E+00, -7.45375000E+02,
                       3.35532000E+00])))

species(name=u'N2',
        atoms='N:2',
        thermo=(NASA([200.00, 1000.00],
                     [ 3.53101000E+00, -1.23661000E-04, -5.02999000E-07,
                       2.43531000E-09, -1.40881000E-12, -1.04698000E+03,
                       2.96747000E+00]),
                NASA([1000.00, 6000.00],
                     [ 2.95258000E+00,  1.39690000E-03, -4.92632000E-07,
                       7.86010000E-11, -4.60755000E-15, -9.23949000E+02,
                       5.87189000E+00])))

species(name=u'C2H4(2)',
        atoms='H:4 C:2',
        thermo=(NASA([100.00, 979.36],
                     [ 3.97471606E+00, -4.75844285E-03,  4.16783770E-05,
                      -4.51392516E-08,  1.54224761E-11,  4.91540746E+03,
                       3.62430844E+00]),
                NASA([979.36, 5000.00],
                     [ 3.55660610E+00,  1.10627464E-02, -4.17019079E-06,
                       7.85586770E-10, -5.70060829E-14,  4.32046489E+03,
                       2.17719479E+00])))

species(name=u'C4H8-1(3)',
        atoms='H:8 C:4',
        thermo=(NASA([100.00, 1007.28],
                     [ 2.58772906E+00,  2.32777969E-02,  1.93412349E-05,
                      -3.55496333E-08,  1.36906009E-11, -1.91872926E+03,
                       1.45750618E+01]),
                NASA([1007.28, 5000.00],
                     [ 7.20517168E+00,  2.36361568E-02, -9.03150028E-06,
                       1.65392666E-09, -1.16019260E-13, -3.79733937E+03,
                      -1.24426257E+01])))

species(name=u'C4H8-2(4)',
        atoms='H:8 C:4',
        thermo=(NASA([100.00, 1157.79],
                     [ 2.51998327E+00,  2.76812799E-02,  9.43783469E-07,
                      -1.25009101E-08,  4.67144666E-12, -3.34374767E+03,
                       1.30195623E+01]),
                NASA([1157.79, 5000.00],
                     [ 6.04225708E+00,  2.60072350E-02, -1.04843374E-05,
                       1.90880922E-09, -1.30600505E-13, -4.86276511E+03,
                      -7.52715109E+00])))

species(name=u'C4H6(7)',
        atoms='H:6 C:4',
        thermo=(NASA([100.00, 946.05],
                     [ 2.80599310E+00,  1.02584471E-02,  6.17260255E-05,
                      -9.01642687E-08,  3.59116961E-11,  1.16584972E+04,
                       1.20621434E+01]),
                NASA([946.05, 5000.00],
                     [ 1.24693720E+01,  1.00553901E-02, -2.41206872E-06,
                       4.57077303E-10, -3.93160571E-14,  8.01077795E+03,
                      -4.36374720E+01])))

species(name=u'H2(68)',
        atoms='H:2',
        thermo=(NASA([100.00, 1959.08],
                     [ 3.43536412E+00,  2.12710353E-04, -2.78625043E-07,
                       3.40267167E-10, -7.76031998E-14, -1.03135984E+03,
                      -3.90841732E+00]),
                NASA([1959.08, 5000.00],
                     [ 2.78816583E+00,  5.87640942E-04,  1.59010417E-07,
                      -5.52739026E-11,  4.34310984E-15, -5.96144270E+02,
                       1.12732655E-01])))

species(name=u'C6H8(111)',
        atoms='H:8 C:6',
        thermo=(NASA([100.00, 972.94],
                     [ 1.82686070E+00,  3.47046353E-02,  2.41070171E-05,
                      -5.44847920E-08,  2.29388832E-11,  1.99100661E+04,
                       1.81393315E+01]),
                NASA([972.94, 5000.00],
                     [ 1.21686202E+01,  2.40472785E-02, -8.58151834E-06,
                       1.57034031E-09, -1.12795334E-13,  1.63897115E+04,
                      -3.92195169E+01])))

species(name=u'C8H10(114)',
        atoms='H:10 C:8',
        thermo=(NASA([100.00, 1006.91],
                     [ 9.59099136E-01,  5.26052795E-02,  1.05118295E-05,
                      -4.60808495E-08,  1.99632153E-11,  2.84660811E+04,
                       2.42924801E+01]),
                NASA([1006.91, 5000.00],
                     [ 1.34171277E+01,  3.60526403E-02, -1.38971709E-05,
                       2.56761905E-09, -1.81631637E-13,  2.42875578E+04,
                      -4.41873377E+01])))

species(name=u'S(205)',
        atoms='H:16 C:12',
        thermo=(NASA([100.00, 980.77],
                     [-2.21845665E+00,  1.15202302E-01, -4.46058253E-05,
                      -2.89292454E-08,  2.08193354E-11,  3.97133228E+04,
                       4.48687920E+01]),
                NASA([980.77, 5000.00],
                     [ 2.59409200E+01,  4.89148103E-02, -1.74910345E-05,
                       3.12129948E-09, -2.18247198E-13,  3.18543069E+04,
                      -1.02343316E+02])))

species(name=u'S(216)',
        atoms='H:16 C:12',
        thermo=(NASA([100.00, 989.29],
                     [-1.49871027E+00,  8.97231513E-02,  3.13728211E-05,
                      -1.05849951E-07,  4.65472901E-11,  2.08342656E+04,
                       3.86324941E+01]),
                NASA([989.29, 5000.00],
                     [ 2.71231573E+01,  4.82447418E-02, -1.83146882E-05,
                       3.49879125E-09, -2.57494969E-13,  1.15378770E+04,
                      -1.17506583E+02])))

species(name=u'S(232)',
        atoms='H:12 C:10',
        thermo=(NASA([100.00, 1043.18],
                     [ 8.00010427E-02,  7.06155121E-02, -3.33970318E-06,
                      -3.75536308E-08,  1.70371997E-11,  3.70226034E+04,
                       3.04877535E+01]),
                NASA([1043.18, 5000.00],
                     [ 1.48527536E+01,  4.77532684E-02, -1.90425431E-05,
                       3.52560547E-09, -2.47266459E-13,  3.21023102E+04,
                      -5.02171312E+01])))

species(name=u'C8H10(266)',
        atoms='H:10 C:8',
        thermo=(NASA([100.00, 977.35],
                     [ 1.20172531E+00,  3.27274077E-02,  9.65442570E-05,
                      -1.46972960E-07,  5.73036376E-11,  3.66668179E+04,
                       1.86380248E+01]),
                NASA([977.35, 5000.00],
                     [ 1.91455428E+01,  3.13148912E-02, -1.18304959E-05,
                       2.35396563E-09, -1.80726910E-13,  2.97193129E+04,
                      -8.51181378E+01])))

species(name=u'S(473)',
        atoms='H:12 C:10',
        thermo=(NASA([100.00, 968.65],
                     [ 6.55596893E-03,  5.50367595E-02,  8.40309751E-05,
                      -1.50786277E-07,  6.17167027E-11,  3.87297379E+04,
                       2.63275406E+01]),
                NASA([968.65, 5000.00],
                     [ 2.42145071E+01,  3.63241455E-02, -1.28171324E-05,
                       2.46810154E-09, -1.87634557E-13,  3.02280478E+04,
                      -1.09367124E+02])))

species(name=u'S(566)',
        atoms='H:12 C:10',
        thermo=(NASA([100.00, 934.90],
                     [ 1.14949863E+00,  2.56056208E-02,  1.48145681E-04,
                      -2.17005632E-07,  8.71671305E-11,  1.98025721E+04,
                       2.52596418E+01]),
                NASA([934.90, 5000.00],
                     [ 2.30268642E+01,  2.66924504E-02, -5.52368921E-06,
                       9.11070585E-10, -7.58555397E-14,  1.15738298E+04,
                      -1.00944658E+02])))

species(name=u'S(644)',
        atoms='H:11 C:10',
        thermo=(NASA([100.00, 927.11],
                     [ 5.80169242E-01,  4.54991468E-02,  8.45438319E-05,
                      -1.52228728E-07,  6.51050039E-11,  3.12309550E+04,
                       2.57307422E+01]),
                NASA([927.11, 5000.00],
                     [ 2.31406667E+01,  2.44209791E-02, -4.73406672E-06,
                       6.89776122E-10, -5.41266922E-14,  2.37703881E+04,
                      -9.90782512E+01])))

species(name=u'S(681)',
        atoms='H:12 C:10',
        thermo=(NASA([100.00, 936.06],
                     [ 2.95830266E-01,  5.44689708E-02,  6.09446235E-05,
                      -1.25610619E-07,  5.46763618E-11,  1.70397067E+04,
                       2.51926264E+01]),
                NASA([936.06, 5000.00],
                     [ 2.24308561E+01,  2.84460946E-02, -7.22714492E-06,
                       1.19289639E-09, -8.89025831E-14,  9.89187725E+03,
                      -9.61788204E+01])))

species(name=u'S(759)',
        atoms='H:11 C:10',
        thermo=(NASA([100.00, 948.23],
                     [ 9.48610297E-01,  4.57480578E-02,  5.94433889E-05,
                      -1.07641581E-07,  4.44708543E-11,  3.15502157E+04,
                       2.71111390E+01]),
                NASA([948.23, 5000.00],
                     [ 1.56110390E+01,  3.74015703E-02, -1.19924608E-05,
                       2.08871417E-09, -1.48107957E-13,  2.63640891E+04,
                      -5.55310537E+01])))

species(name=u'S(885)',
        atoms='H:12 C:10',
        thermo=(NASA([100.00, 967.29],
                     [ 6.54512479E-01,  5.48222254E-02,  3.55433413E-05,
                      -8.07551584E-08,  3.39955407E-11,  1.73593892E+04,
                       2.66086089E+01]),
                NASA([967.29, 5000.00],
                     [ 1.50002003E+01,  4.12607497E-02, -1.43908124E-05,
                       2.56962456E-09, -1.81052037E-13,  1.24432657E+04,
                      -5.31901332E+01])))

species(name=u'S(940)',
        atoms='H:14 C:12',
        thermo=(NASA([100.00, 950.27],
                     [-5.57825460E-01,  7.22327337E-02,  4.76638561E-05,
                      -1.17323641E-07,  5.15979111E-11,  2.55951014E+04,
                       3.12934768E+01]),
                NASA([950.27, 5000.00],
                     [ 2.34667276E+01,  4.08032257E-02, -1.27416508E-05,
                       2.23646027E-09, -1.61535227E-13,  1.78822140E+04,
                      -9.99436230E+01])))

species(name=u'S(1149)',
        atoms='H:15 C:12',
        thermo=(NASA([100.00, 994.96],
                     [-9.10525753E-01,  7.23065908E-02,  7.86529115E-05,
                      -1.50118451E-07,  6.04728055E-11,  3.34535297E+04,
                       3.72742060E+01]),
                NASA([994.96, 5000.00],
                     [ 2.59409054E+01,  5.12026508E-02, -2.04595453E-05,
                       4.01923029E-09, -2.99921063E-13,  2.38116792E+04,
                      -1.13734786E+02])))

species(name=u'S(1194)',
        atoms='H:16 C:12',
        thermo=(NASA([100.00, 1011.71],
                     [-1.20303342E+00,  8.13255676E-02,  5.51392531E-05,
                      -1.24057147E-07,  5.05122313E-11,  1.92626563E+04,
                       3.67681708E+01]),
                NASA([1011.71, 5000.00],
                     [ 2.55049272E+01,  5.47778999E-02, -2.26996210E-05,
                       4.46368808E-09, -3.29899575E-13,  9.81303791E+03,
                      -1.12386527E+02])))

species(name=u'S(1324)',
        atoms='H:13 C:10',
        thermo=(NASA([100.00, 976.25],
                     [ 2.44850415E-02,  5.63859714E-02,  7.92794649E-05,
                      -1.41928102E-07,  5.74393116E-11,  2.04708984E+04,
                       2.81369127E+01]),
                NASA([976.25, 5000.00],
                     [ 2.23687210E+01,  4.13694852E-02, -1.52419740E-05,
                       2.92184710E-09, -2.18042141E-13,  1.24610288E+04,
                      -9.78033799E+01])))

species(name=u'S(1399)',
        atoms='H:14 C:10',
        thermo=(NASA([100.00, 1026.38],
                     [-2.04485560E-01,  6.87984832E-02,  3.42640846E-05,
                      -8.47374871E-08,  3.42039564E-11,  1.03310869E+04,
                       2.80524687E+01]),
                NASA([1026.38, 5000.00],
                     [ 1.86284987E+01,  5.10531563E-02, -2.11321735E-05,
                       4.07064082E-09, -2.94617581E-13,  3.53386199E+03,
                      -7.75757937E+01])))

species(name=u'S(1435)',
        atoms='H:13 C:10',
        thermo=(NASA([100.00, 986.38],
                     [-1.54493551E-05,  6.58256267E-02,  3.11002907E-05,
                      -8.35076671E-08,  3.55086836E-11,  1.81700564E+04,
                       3.24482933E+01]),
                NASA([986.38, 5000.00],
                     [ 1.83909399E+01,  4.41789029E-02, -1.64765093E-05,
                       3.05235475E-09, -2.18908318E-13,  1.19669088E+04,
                      -6.90782445E+01])))

species(name=u'S(1492)',
        atoms='H:14 C:10',
        thermo=(NASA([100.00, 974.14],
                     [-4.98430854E-01,  7.37939716E-02,  2.71851067E-05,
                      -8.95987019E-08,  3.98718484E-11,  9.43089456E+03,
                       3.12086110E+01]),
                NASA([974.14, 5000.00],
                     [ 2.24683141E+01,  4.00995513E-02, -1.42625815E-05,
                       2.63940716E-09, -1.92019869E-13,  2.08049504E+03,
                      -9.37518546E+01])))

species(name=u'S(1562)',
        atoms='H:14 C:10',
        thermo=(NASA([100.00, 1020.53],
                     [-3.97088667E-01,  7.75162211E-02,  6.84060276E-07,
                      -5.05020494E-08,  2.30977837E-11,  1.21827946E+04,
                       3.09001989E+01]),
                NASA([1020.53, 5000.00],
                     [ 1.81749563E+01,  4.77343168E-02, -1.87621936E-05,
                       3.50079189E-09, -2.48591460E-13,  6.15234931E+03,
                      -7.00502669E+01])))

species(name=u'S(1563)',
        atoms='H:14 C:10',
        thermo=(NASA([100.00, 993.52],
                     [ 2.15843276E-01,  5.91483958E-02,  5.29942731E-05,
                      -1.03518063E-07,  4.15245382E-11,  1.26312914E+04,
                       3.01350656E+01]),
                NASA([993.52, 5000.00],
                     [ 1.73970636E+01,  4.82362593E-02, -1.84929210E-05,
                       3.47527858E-09, -2.50708945E-13,  6.34191811E+03,
                      -6.71135018E+01])))

species(name=u'S(1887)',
        atoms='H:13 C:10',
        thermo=(NASA([100.00, 1637.26],
                     [ 2.87179558E-02,  8.19008576E-02, -3.78215733E-05,
                       3.53593735E-09,  8.99568467E-13,  1.18083830E+04,
                       2.72174820E+01]),
                NASA([1637.26, 5000.00],
                     [ 2.29591379E+01,  4.50551879E-02, -2.16330004E-05,
                       4.09765539E-09, -2.78490076E-13,  1.72961556E+03,
                      -1.02562734E+02])))

species(name=u'S(1944)',
        atoms='H:14 C:10',
        thermo=(NASA([100.00, 1015.96],
                     [-3.04208179E-01,  7.49867461E-02,  7.06992940E-06,
                      -5.67495468E-08,  2.52395255E-11,  3.97968286E+03,
                       3.19838748E+01]),
                NASA([1015.96, 5000.00],
                     [ 1.79904052E+01,  4.76930761E-02, -1.86810396E-05,
                       3.48836134E-09, -2.48182511E-13, -2.04637536E+03,
                      -6.79290595E+01])))

species(name=u'S(2119)',
        atoms='H:14 C:10',
        thermo=(NASA([100.00, 1050.56],
                     [-2.60889849E-01,  7.48987323E-02,  2.18853410E-06,
                      -4.80327076E-08,  2.10296141E-11, -6.15139166E+03,
                       3.13429015E+01]),
                NASA([1050.56, 5000.00],
                     [ 1.74393401E+01,  4.90551394E-02, -2.02369072E-05,
                       3.84465603E-09, -2.74218351E-13, -1.21633126E+04,
                      -6.58361981E+01])))

species(name=u'S(2170)',
        atoms='H:11 C:10',
        thermo=(NASA([100.00, 1381.33],
                     [-1.31192539E+00,  1.01013018E-01, -1.27736229E-04,
                       8.55666301E-08, -1.99650689E-11,  2.79758071E+04,
                       2.80375735E+01]),
                NASA([1381.33, 5000.00],
                     [ 1.01895884E+01,  2.28569639E-02,  5.83780085E-06,
                      -2.40543758E-09,  2.10736184E-13,  2.90772183E+04,
                      -1.56778076E+01])))

species(name=u'S(2200)',
        atoms='H:11 C:10',
        thermo=(NASA([100.00, 1532.99],
                     [-2.60221198E+00,  1.08977378E-01, -1.31378790E-04,
                       8.03951590E-08, -1.69601249E-11,  2.83143001E+04,
                       3.41737165E+01]),
                NASA([1532.99, 5000.00],
                     [ 1.33750920E+01,  1.56691649E-02,  1.04297031E-05,
                      -3.23962477E-09,  2.61116398E-13,  2.94810489E+04,
                      -2.99505610E+01])))

species(name=u'S(2278)',
        atoms='H:12 C:10',
        thermo=(NASA([100.00, 1297.03],
                     [-2.76127765E+00,  1.42056069E-01, -2.50808225E-04,
                       1.95708192E-07, -5.02524216E-11,  2.51971291E+04,
                       3.02798198E+01]),
                NASA([1297.03, 5000.00],
                     [ 8.52302926E+00,  5.01059845E-03,  2.59278776E-05,
                      -7.30956255E-09,  5.93417224E-13,  3.08702244E+04,
                       6.05856401E+00])))

species(name=u'S(2293)',
        atoms='H:12 C:10',
        thermo=(NASA([100.00, 1353.28],
                     [-2.82907851E+00,  1.33494668E-01, -2.16608600E-04,
                       1.61817665E-07, -3.98678565E-11,  2.34958208E+04,
                       2.90311387E+01]),
                NASA([1353.28, 5000.00],
                     [ 8.26344325E+00,  8.75067107E-03,  2.35864592E-05,
                      -6.72171617E-09,  5.43464704E-13,  2.89139192E+04,
                       3.27118999E+00])))

species(name=u'S(2297)',
        atoms='H:12 C:10',
        thermo=(NASA([100.00, 953.51],
                     [ 8.21214316E-01,  4.73176809E-02,  6.19797203E-05,
                      -1.11881066E-07,  4.60176941E-11,  1.80592420E+04,
                       2.67156431E+01]),
                NASA([953.51, 5000.00],
                     [ 1.64234124E+01,  3.82596898E-02, -1.24852877E-05,
                       2.20904047E-09, -1.58058960E-13,  1.25202583E+04,
                      -6.12562002E+01])))

species(name=u'S(2478)',
        atoms='H:14 C:12',
        thermo=(NASA([100.00, 1068.15],
                     [-1.05537288E+00,  9.54829757E-02, -4.03613729E-05,
                      -9.48385705E-09,  8.84860091E-12,  2.59743294E+04,
                       3.73012724E+01]),
                NASA([1068.15, 5000.00],
                     [ 1.84321378E+01,  5.18475023E-02, -2.02877867E-05,
                       3.70393362E-09, -2.56869115E-13,  2.01373703E+04,
                      -6.58346987E+01])))

species(name=u'S(2485)',
        atoms='H:13 C:12',
        thermo=(NASA([100.00, 1503.65],
                     [-2.97754140E+00,  1.21145236E-01, -1.32241141E-04,
                       7.74223811E-08, -1.61898504E-11,  3.69367896E+04,
                       3.91639265E+01]),
                NASA([1503.65, 5000.00],
                     [ 1.59367302E+01,  2.77800711E-02,  3.84242453E-06,
                      -1.95273827E-09,  1.72911263E-13,  3.61153731E+04,
                      -4.36186843E+01])))

species(name=u'S(2594)',
        atoms='H:11 C:10',
        thermo=(NASA([100.00, 925.29],
                     [ 4.83289116E-01,  4.84541844E-02,  7.60246745E-05,
                      -1.44132682E-07,  6.25087808E-11,  2.90704717E+04,
                       2.94216406E+01]),
                NASA([925.29, 5000.00],
                     [ 2.33739844E+01,  2.37949655E-02, -4.44332797E-06,
                       6.23131165E-10, -4.86434118E-14,  2.16538799E+04,
                      -9.64217581E+01])))

species(name=u'S(2601)',
        atoms='H:12 C:10',
        thermo=(NASA([100.00, 943.98],
                     [ 3.61079111E-01,  5.70819810E-02,  4.27360161E-05,
                      -9.99610616E-08,  4.39086512E-11,  1.69136774E+04,
                       2.66712740E+01]),
                NASA([943.98, 5000.00],
                     [ 1.97667022E+01,  3.24460292E-02, -9.63275992E-06,
                       1.65405460E-09, -1.19154462E-13,  1.06839070E+04,
                      -7.94226012E+01])))

species(name=u'S(2608)',
        atoms='H:12 C:10',
        thermo=(NASA([100.00, 935.11],
                     [ 3.79339109E-01,  5.08577586E-02,  7.34866939E-05,
                      -1.39781495E-07,  5.99633437E-11,  1.76535888E+04,
                       2.84064947E+01]),
                NASA([935.11, 5000.00],
                     [ 2.29267017E+01,  2.76205204E-02, -6.67579693E-06,
                       1.09330263E-09, -8.30308816E-14,  1.02358661E+04,
                      -9.59737471E+01])))

species(name=u'S(2609)',
        atoms='H:12 C:10',
        thermo=(NASA([100.00, 941.22],
                     [ 4.51679515E-01,  5.27055163E-02,  5.81207038E-05,
                      -1.17964589E-07,  5.07869577E-11,  1.66051705E+04,
                       2.72045401E+01]),
                NASA([941.22, 5000.00],
                     [ 2.06972368E+01,  3.06134302E-02, -8.58262575E-06,
                       1.46449062E-09, -1.07527719E-13,  9.96150423E+03,
                      -8.42893614E+01])))

species(name=u'S(2643)',
        atoms='H:11 C:10',
        thermo=(NASA([100.00, 1532.99],
                     [-2.60221198E+00,  1.08977378E-01, -1.31378790E-04,
                       8.03951590E-08, -1.69601249E-11,  2.83143001E+04,
                       3.34805693E+01]),
                NASA([1532.99, 5000.00],
                     [ 1.33750920E+01,  1.56691649E-02,  1.04297031E-05,
                      -3.23962477E-09,  2.61116398E-13,  2.94810489E+04,
                      -3.06437082E+01])))

species(name=u'S(3133)',
        atoms='H:14 C:12',
        thermo=(NASA([100.00, 972.03],
                     [-3.54562122E-01,  6.74654276E-02,  5.60566249E-05,
                      -1.19681778E-07,  5.01744806E-11,  2.62914179E+04,
                       3.53625360E+01]),
                NASA([972.03, 5000.00],
                     [ 2.19771460E+01,  4.48199061E-02, -1.58649293E-05,
                       2.94099398E-09, -2.14558774E-13,  1.86784255E+04,
                      -8.85701488E+01])))

species(name=u'S(3135)',
        atoms='H:14 C:12',
        thermo=(NASA([100.00, 961.70],
                     [-1.89713198E-01,  5.99869732E-02,  8.23794761E-05,
                      -1.50623331E-07,  6.20992401E-11,  2.69913482E+04,
                       3.54759582E+01]),
                NASA([961.70, 5000.00],
                     [ 2.33905729E+01,  4.18343618E-02, -1.39678917E-05,
                       2.58233550E-09, -1.91720494E-13,  1.87598851E+04,
                      -9.65804553E+01])))

species(name=u'X(1)',
        atoms='X:1',
        thermo=(NASA([100.00, 1554.80],
                     [ 7.10139498E-03, -4.25619522E-05,  8.98533016E-08,
                      -7.80193649E-11,  2.32465471E-14, -8.76101712E-01,
                      -3.11211229E-02]),
                NASA([1554.80, 5000.00],
                     [ 1.60299900E-01, -2.52235409E-04,  1.14181275E-07,
                      -1.21471653E-11,  3.85790025E-16, -7.08100885E+01,
                      -9.09527530E-01])))

species(name=u'HX(5)',
        atoms='H:1 X:1',
        thermo=(NASA([100.00, 952.91],
                     [-3.80965452E-01,  5.47228709E-03,  2.60912778E-06,
                      -9.64961980E-09,  4.63946753E-12,  7.31399420E+02,
                       1.01725550E+00]),
                NASA([952.91, 5000.00],
                     [ 2.80339655E+00, -5.41047017E-04,  4.99507978E-07,
                      -7.54963647E-11,  3.06772366E-15, -2.09349999E+02,
                      -1.59436787E+01])))

species(name=u'C2H3X(37)',
        atoms='H:3 C:2 X:1',
        thermo=(NASA([100.00, 928.62],
                     [ 3.83091018E+00, -8.76381562E-03,  6.97956896E-05,
                      -8.67969174E-08,  3.33218121E-11,  1.24795184E+04,
                      -1.81151753E+01]),
                NASA([928.62, 5000.00],
                     [ 8.78054562E+00,  1.92497720E-03,  8.25825014E-07,
                      -1.63749818E-10,  5.71728318E-15,  1.01801153E+04,
                      -4.90588618E+01])))

species(name=u'C4H5X(80)',
        atoms='H:5 C:4 X:1',
        thermo=(NASA([100.00, 936.52],
                     [ 2.68471723E+00,  1.36244496E-02,  5.32591849E-05,
                      -8.32912448E-08,  3.41499374E-11,  1.45727486E+04,
                      -1.06510487E+01]),
                NASA([936.52, 5000.00],
                     [ 1.29012266E+01,  8.96921861E-03, -1.71920076E-06,
                       2.89744517E-10, -2.58686364E-14,  1.09497097E+04,
                      -6.83963397E+01])))

species(name=u'C4H5X(81)',
        atoms='H:5 C:4 X:1',
        thermo=(NASA([100.00, 928.63],
                     [ 2.64232495E+00,  8.31109593E-03,  8.12146261E-05,
                      -1.21398701E-07,  4.98630759E-11,  1.97556574E+04,
                      -1.03932963E+01]),
                NASA([928.63, 5000.00],
                     [ 1.69490474E+01,  2.00818812E-03,  2.03468841E-06,
                      -4.02657023E-10,  1.85400094E-14,  1.47131630E+04,
                      -9.11990785E+01])))
