units(length='cm', time='s', quantity='mol', act_energy='kcal/mol')

ideal_gas(name='gas',
          elements="H D T C Ci O Oi N Ne Ar He Si S Cl X",
          species="""n-heptane   Ar          He          Ne
                     N2          C2H4(2)     C4H8-1(3)   C4H8-2(4)
                     C4H6(7)     C6H8(9)     H2(68)      S(163)
                     S(181)      S(185)      S(244)      S(264)
                     C6H10(651)  C8H12(652)  S(889)      S(1018)
                     S(1771)     CH4(1890)   S(1952)     C2H6(1953)
                     S(2050)     S(2052)     S(2058)     S(2063)
                     C4H8(2491)""",
          reactions='gas-*',
          initial_state=state(temperature=300.0, pressure=OneAtm))

ideal_interface(name='surface1',
                elements="H D T C Ci O Oi N Ne Ar He Si S Cl X",
                species="""X(1)        HX(5)       C2H3X(37)   CH3X(39)
                          C2H5X(40)   C4H7X(41)   C4H7X(42)   C4H7X(43)
                          C4H7X(44)   C4H5X(80)   C4H5X(81)   C6H9X(98)
                          C6H9X(159)  SX(160)     C6H9X(192)  SX(197)
                          SX(198)     C6H9X(642)  C5H7X(645)  SX(706)
                          SX(708)     SX(711)     C6H9X(822)  C6H9X(823)
                          C6H9X(824)  SX(950)     SX(977)     SX(989)
                          SX(990)     SX(991)     SX(1067)    SX(1069)
                          SX(1183)    SX(1195)    SX(1208)    SX(1210)
                          SX(1213)    SX(1237)    SX(1259)    SX(1260)
                          SX(1261)    SX(1331)    SX(1402)    SX(1428)
                          SX(1429)    SX(1459)    SX(1490)    SX(1517)
                          SX(1550)    SX(1955)    SX(1991)""",
                site_density=2.72e-09,
                phases="gas",
          reactions='surface1-*',
                initial_state=state(temperature=300.0, pressure=OneAtm))

#-------------------------------------------------------------------------------
# Element data
#-------------------------------------------------------------------------------

element(symbol=u'X', atomic_mass=195.083)
element(symbol=u'Ci', atomic_mass=13.003)
element(symbol=u'D', atomic_mass=2.014)
element(symbol=u'Oi', atomic_mass=18.0)
element(symbol=u'T', atomic_mass=3.016)
#-------------------------------------------------------------------------------
# Species data
#-------------------------------------------------------------------------------

species(name=u'n-heptane',
        atoms='H:16 C:7',
        thermo=(NASA([100.00, 1262.75],
                     [-2.93512125E-03,  7.69375610E-02, -3.48031525E-05,
                       1.86160506E-09,  2.01550529E-12, -2.57829334E+04,
                       3.00312819E+01]),
                NASA([1262.75, 5000.00],
                     [ 1.38379971E+01,  4.85941816E-02, -1.95472819E-05,
                       3.52833289E-09, -2.39061569E-13, -3.05142526E+04,
                      -4.48654615E+01])))

species(name=u'Ar',
        atoms='Ar:1',
        thermo=(NASA([200.00, 1000.00],
                     [ 2.50000000E+00,  0.00000000E+00,  0.00000000E+00,
                       0.00000000E+00,  0.00000000E+00, -7.45375000E+02,
                       4.37967000E+00]),
                NASA([1000.00, 6000.00],
                     [ 2.50000000E+00,  0.00000000E+00,  0.00000000E+00,
                       0.00000000E+00,  0.00000000E+00, -7.45375000E+02,
                       4.37967000E+00])))

species(name=u'He',
        atoms='He:1',
        thermo=(NASA([200.00, 1000.00],
                     [ 2.50000000E+00,  0.00000000E+00,  0.00000000E+00,
                       0.00000000E+00,  0.00000000E+00, -7.45375000E+02,
                       9.28724000E-01]),
                NASA([1000.00, 6000.00],
                     [ 2.50000000E+00,  0.00000000E+00,  0.00000000E+00,
                       0.00000000E+00,  0.00000000E+00, -7.45375000E+02,
                       9.28724000E-01])))

species(name=u'Ne',
        atoms='Ne:1',
        thermo=(NASA([200.00, 1000.00],
                     [ 2.50000000E+00,  0.00000000E+00,  0.00000000E+00,
                       0.00000000E+00,  0.00000000E+00, -7.45375000E+02,
                       3.35532000E+00]),
                NASA([1000.00, 6000.00],
                     [ 2.50000000E+00,  0.00000000E+00,  0.00000000E+00,
                       0.00000000E+00,  0.00000000E+00, -7.45375000E+02,
                       3.35532000E+00])))

species(name=u'N2',
        atoms='N:2',
        thermo=(NASA([200.00, 1000.00],
                     [ 3.53101000E+00, -1.23661000E-04, -5.02999000E-07,
                       2.43531000E-09, -1.40881000E-12, -1.04698000E+03,
                       2.96747000E+00]),
                NASA([1000.00, 6000.00],
                     [ 2.95258000E+00,  1.39690000E-03, -4.92632000E-07,
                       7.86010000E-11, -4.60755000E-15, -9.23949000E+02,
                       5.87189000E+00])))

species(name=u'C2H4(2)',
        atoms='H:4 C:2',
        thermo=(NASA([100.00, 979.37],
                     [ 3.97469045E+00, -4.75813325E-03,  4.16772624E-05,
                      -4.51377676E-08,  1.54218287E-11,  4.91540855E+03,
                       3.62439976E+00]),
                NASA([979.37, 5000.00],
                     [ 3.55670229E+00,  1.10625819E-02, -4.17009559E-06,
                       7.85564219E-10, -5.70042086E-14,  4.32042473E+03,
                       2.17665377E+00])))

species(name=u'C4H8-1(3)',
        atoms='H:8 C:4',
        thermo=(NASA([100.00, 1007.28],
                     [ 2.58772978E+00,  2.32777883E-02,  1.93412653E-05,
                      -3.55496729E-08,  1.36906178E-11, -1.91872929E+03,
                       1.45750592E+01]),
                NASA([1007.28, 5000.00],
                     [ 7.20516863E+00,  2.36361619E-02, -9.03150325E-06,
                       1.65392736E-09, -1.16019318E-13, -3.79733809E+03,
                      -1.24426086E+01])))

species(name=u'C4H8-2(4)',
        atoms='H:8 C:4',
        thermo=(NASA([100.00, 1157.78],
                     [ 2.51999305E+00,  2.76811707E-02,  9.44135366E-07,
                      -1.25013222E-08,  4.67160311E-12, -3.34374810E+03,
                       1.30195268E+01]),
                NASA([1157.78, 5000.00],
                     [ 6.04218222E+00,  2.60073554E-02, -1.04844041E-05,
                       1.90882450E-09, -1.30601743E-13, -4.86273126E+03,
                      -7.52672501E+00])))

species(name=u'C4H6(7)',
        atoms='H:6 C:4',
        thermo=(NASA([100.00, 946.05],
                     [ 2.80594317E+00,  1.02590609E-02,  6.17237648E-05,
                      -9.01611778E-08,  3.59103084E-11,  1.16584993E+04,
                       1.20623208E+01]),
                NASA([946.05, 5000.00],
                     [ 1.24695345E+01,  1.00551088E-02, -2.41190446E-06,
                       4.57038145E-10, -3.93127871E-14,  8.01071120E+03,
                      -4.36383840E+01])))

species(name=u'C6H8(9)',
        atoms='H:8 C:6',
        thermo=(NASA([100.00, 941.22],
                     [ 1.38427839E+00,  4.14411676E-02,  1.94286778E-05,
                      -6.16687823E-08,  2.86503237E-11,  1.76317462E+04,
                       1.93257559E+01]),
                NASA([941.22, 5000.00],
                     [ 1.69619725E+01,  1.57221629E-02, -4.10117912E-06,
                       6.95735258E-10, -5.26520576E-14,  1.29061653E+04,
                      -6.44097805E+01])))

species(name=u'H2(68)',
        atoms='H:2',
        thermo=(NASA([100.00, 1959.08],
                     [ 3.43536411E+00,  2.12710383E-04, -2.78625110E-07,
                       3.40267219E-10, -7.76032129E-14, -1.03135984E+03,
                      -3.90841731E+00]),
                NASA([1959.08, 5000.00],
                     [ 2.78816619E+00,  5.87640475E-04,  1.59010635E-07,
                      -5.52739465E-11,  4.34311304E-15, -5.96144481E+02,
                       1.12730527E-01])))

species(name=u'S(163)',
        atoms='H:14 C:10',
        thermo=(NASA([100.00, 1005.32],
                     [-8.70322223E-01,  8.89792357E-02, -2.38549264E-05,
                      -3.15632626E-08,  1.81666003E-11,  3.78335545E+04,
                       4.06086448E+01]),
                NASA([1005.32, 5000.00],
                     [ 2.02610245E+01,  4.45996440E-02, -1.68700098E-05,
                       3.08364483E-09, -2.16972845E-13,  3.15786859E+04,
                      -7.14274694E+01])))

species(name=u'S(181)',
        atoms='H:16 C:12',
        thermo=(NASA([100.00, 985.43],
                     [-1.88309559E+00,  1.07042782E-01, -2.70575175E-05,
                      -4.30521591E-08,  2.47769762E-11,  4.00783515E+04,
                       4.74622652E+01]),
                NASA([985.43, 5000.00],
                     [ 2.44924173E+01,  5.06802141E-02, -1.84364732E-05,
                       3.32429337E-09, -2.33628170E-13,  3.24184482E+04,
                      -9.18874447E+01])))

species(name=u'S(185)',
        atoms='H:16 C:12',
        thermo=(NASA([100.00, 992.46],
                     [-1.36729922E+00,  9.09281156E-02,  1.69886510E-05,
                      -8.53926708E-08,  3.84292138E-11,  2.11993211E+04,
                       3.87739443E+01]),
                NASA([992.46, 5000.00],
                     [ 2.42203013E+01,  5.14038229E-02, -1.94054924E-05,
                       3.62907015E-09, -2.61719468E-13,  1.29879994E+04,
                      -1.00258754E+02])))

species(name=u'S(244)',
        atoms='H:16 C:12',
        thermo=(NASA([100.00, 1082.71],
                     [-1.42164116E+00,  1.00365877E-01, -2.86684073E-05,
                      -2.45437346E-08,  1.37137557E-11,  2.67269125E+04,
                       3.45500457E+01]),
                NASA([1082.71, 5000.00],
                     [ 1.94955705E+01,  6.02183210E-02, -2.44875841E-05,
                       4.55574638E-09, -3.18940186E-13,  2.00211805E+04,
                      -7.80757961E+01])))

species(name=u'S(264)',
        atoms='H:16 C:12',
        thermo=(NASA([100.00, 967.86],
                     [-1.32199649E+00,  8.47366715E-02,  4.59829753E-05,
                      -1.23787643E-07,  5.42522776E-11,  2.23199242E+04,
                       3.57017535E+01]),
                NASA([967.86, 5000.00],
                     [ 2.71808180E+01,  4.57703342E-02, -1.58004061E-05,
                       2.92353835E-09, -2.14852771E-13,  1.31103467E+04,
                      -1.19950987E+02])))

species(name=u'C6H10(651)',
        atoms='H:10 C:6',
        thermo=(NASA([100.00, 1020.64],
                     [ 9.97407792E-01,  5.59779371E-02, -2.05888747E-05,
                      -1.17171796E-08,  8.13407747E-12,  6.30749940E+03,
                       2.38942539E+01]),
                NASA([1020.64, 5000.00],
                     [ 1.33829093E+01,  2.83659778E-02, -1.07662265E-05,
                       1.95747034E-09, -1.36587777E-13,  2.68923113E+03,
                      -4.14516757E+01])))

species(name=u'C8H12(652)',
        atoms='H:12 C:8',
        thermo=(NASA([100.00, 1002.94],
                     [ 1.69470520E-02,  7.28189610E-02, -2.16586522E-05,
                      -2.40806705E-08,  1.44596580E-11,  1.38562448E+04,
                       3.07679147E+01]),
                NASA([1002.94, 5000.00],
                     [ 1.77276964E+01,  3.45993664E-02, -1.29781749E-05,
                       2.37499951E-09, -1.67643382E-13,  8.67334297E+03,
                      -6.28559833E+01])))

species(name=u'S(889)',
        atoms='H:18 C:12',
        thermo=(NASA([100.00, 1043.01],
                     [-2.42966476E+00,  1.21601061E-01, -5.92250869E-05,
                      -7.36143147E-09,  1.08369130E-11,  3.04699791E+04,
                       4.98768148E+01]),
                NASA([1043.01, 5000.00],
                     [ 2.40507644E+01,  5.80554639E-02, -2.24990137E-05,
                       4.10279336E-09, -2.85475705E-13,  2.28787162E+04,
                      -8.89017893E+01])))

species(name=u'S(1018)',
        atoms='H:12 C:8',
        thermo=(NASA([100.00, 1016.52],
                     [-1.10429262E-01,  7.70814643E-02, -3.47833133E-05,
                      -1.00302879E-08,  9.42640259E-12,  1.21750142E+04,
                       2.97645888E+01]),
                NASA([1016.52, 5000.00],
                     [ 1.75623557E+01,  3.50022758E-02, -1.32158187E-05,
                       2.40320185E-09, -1.68059078E-13,  7.16317810E+03,
                      -6.27651250E+01])))

species(name=u'S(1771)',
        atoms='H:14 C:8',
        thermo=(NASA([100.00, 1014.29],
                     [-3.67121776E-01,  8.14233507E-02, -3.11110856E-05,
                      -1.65487795E-08,  1.19185882E-11, -3.02333685E+03,
                       3.00035000E+01]),
                NASA([1014.29, 5000.00],
                     [ 1.79686764E+01,  3.98264141E-02, -1.50150744E-05,
                       2.72531013E-09, -1.90287566E-13, -8.32275136E+03,
                      -6.65042537E+01])))

species(name=u'CH4(1890)',
        atoms='H:4 C:1',
        thermo=(NASA([100.00, 1084.15],
                     [ 4.20540072E+00, -5.35540640E-03,  2.51117636E-05,
                      -2.13755910E-08,  5.97496145E-12, -1.01619427E+04,
                      -9.21226951E-01]),
                NASA([1084.15, 5000.00],
                     [ 9.08349401E-01,  1.14539479E-02, -4.57166053E-06,
                       8.29173612E-10, -5.66300105E-14, -9.72001110E+03,
                       1.39926204E+01])))

species(name=u'S(1952)',
        atoms='H:12 C:7',
        thermo=(NASA([100.00, 1783.80],
                     [ 3.90325840E-01,  6.99570154E-02, -4.36036518E-05,
                       1.36989954E-08, -1.75194967E-12,  3.91426275E+03,
                       2.69445061E+01]),
                NASA([1783.80, 5000.00],
                     [ 1.66532716E+01,  3.34889563E-02, -1.29376361E-05,
                       2.23807390E-09, -1.45700210E-13, -1.88771106E+03,
                      -6.09269347E+01])))

species(name=u'C2H6(1953)',
        atoms='H:6 C:2',
        thermo=(NASA([100.00, 1012.42],
                     [ 3.72239308E+00,  1.65083640E-03,  3.44175601E-05,
                      -3.76858321E-08,  1.24450696E-11, -1.15575902E+04,
                       4.68247939E+00]),
                NASA([1012.42, 5000.00],
                     [ 2.82848184E+00,  1.73040581E-02, -6.73334315E-06,
                       1.23742041E-09, -8.65676548E-14, -1.19978077E+04,
                       5.93812118E+00])))

species(name=u'S(2050)',
        atoms='H:16 C:10',
        thermo=(NASA([100.00, 1123.67],
                     [-1.31764824E+00,  1.00170063E-01, -4.80610106E-05,
                      -2.83801056E-09,  6.28993744E-12,  9.62629013E+03,
                       3.99207001E+01]),
                NASA([1123.67, 5000.00],
                     [ 2.04321155E+01,  5.14202903E-02, -2.12619842E-05,
                       3.97217115E-09, -2.77843702E-13,  2.92812479E+03,
                      -7.56004598E+01])))

species(name=u'S(2052)',
        atoms='H:16 C:10',
        thermo=(NASA([100.00, 1529.32],
                     [-1.27998767E+00,  1.07061436E-01, -7.54811058E-05,
                       2.76061103E-08, -4.15562687E-12,  9.21403983E+03,
                       4.00297805E+01]),
                NASA([1529.32, 5000.00],
                     [ 2.00857929E+01,  5.11784469E-02, -2.06695967E-05,
                       3.71252215E-09, -2.49716674E-13,  2.67900528E+03,
                      -7.21244767E+01])))

species(name=u'S(2058)',
        atoms='H:14 C:8',
        thermo=(NASA([100.00, 1506.75],
                     [ 5.49655908E-02,  8.43985607E-02, -5.64633863E-05,
                       1.98661591E-08, -2.94600717E-12, -7.77392970E+02,
                       2.95663422E+01]),
                NASA([1506.75, 5000.00],
                     [ 1.39948712E+01,  4.73920143E-02, -1.96226291E-05,
                       3.56584317E-09, -2.41458736E-13, -4.97818417E+03,
                      -4.34003806E+01])))

species(name=u'S(2063)',
        atoms='H:14 C:8',
        thermo=(NASA([100.00, 999.33],
                     [-8.27663787E-02,  7.33931224E-02, -9.71117539E-06,
                      -3.77318717E-08,  1.91775997E-11, -2.27794645E+03,
                       3.16116017E+01]),
                NASA([999.33, 5000.00],
                     [ 1.74909995E+01,  3.99672768E-02, -1.49506956E-05,
                       2.72969201E-09, -1.92364106E-13, -7.63368097E+03,
                      -6.23827637E+01])))

species(name=u'C4H8(2491)',
        atoms='H:8 C:4',
        thermo=(NASA([100.00, 1061.32],
                     [ 2.52506524E+00,  2.64750742E-02,  7.08428866E-06,
                      -2.07740178E-08,  8.00465619E-12, -4.02607206E+03,
                       1.28856643E+01]),
                NASA([1061.32, 5000.00],
                     [ 6.48663440E+00,  2.49945454E-02, -9.83291861E-06,
                       1.79345326E-09, -1.24009900E-13, -5.62448308E+03,
                      -1.00311177E+01])))

species(name=u'X(1)',
        atoms='X:1',
        thermo=(NASA([100.00, 1554.81],
                     [ 7.10134880E-03, -4.25615041E-05,  8.98521156E-08,
                      -7.80182565E-11,  2.32462166E-14, -8.76099414E-01,
                      -3.11209498E-02]),
                NASA([1554.81, 5000.00],
                     [ 1.60301287E-01, -2.52237396E-04,  1.14182282E-07,
                      -1.21473809E-11,  3.85806589E-16, -7.08108147E+01,
                      -9.09535600E-01])))

species(name=u'HX(5)',
        atoms='H:1 X:1',
        thermo=(NASA([100.00, 952.91],
                     [-3.80957846E-01,  5.47219393E-03,  2.60946928E-06,
                      -9.65008412E-09,  4.63967474E-12, -5.07085403E+03,
                       1.01722845E+00]),
                NASA([952.91, 5000.00],
                     [ 2.80337105E+00, -5.41002993E-04,  4.99482316E-07,
                      -7.54902555E-11,  3.06721398E-15, -6.01159262E+03,
                      -1.59435356E+01])))

species(name=u'C2H3X(37)',
        atoms='H:3 C:2 X:1',
        thermo=(NASA([100.00, 928.60],
                     [ 3.83104022E+00, -8.76542826E-03,  6.98017027E-05,
                      -8.68052566E-08,  3.33256145E-11,  3.77613321E+03,
                      -1.81156365E+01]),
                NASA([928.60, 5000.00],
                     [ 8.78015372E+00,  1.92565992E-03,  8.25424482E-07,
                      -1.63654020E-10,  5.70926320E-15,  1.47689519E+03,
                      -4.90566656E+01])))

species(name=u'CH3X(39)',
        atoms='H:3 C:1 X:1',
        thermo=(NASA([100.00, 848.30],
                     [-1.21090611E+00,  2.92390831E-02, -4.49011672E-05,
                       3.86010689E-08, -1.30361474E-11, -3.94437784E+03,
                       6.80940157E+00]),
                NASA([848.30, 5000.00],
                     [ 1.62291116E+00,  1.12987225E-02, -5.08316650E-06,
                       9.46832954E-10, -6.42885005E-14, -4.26044373E+03,
                      -5.42502394E+00])))

species(name=u'C2H5X(40)',
        atoms='H:5 C:2 X:1',
        thermo=(NASA([100.00, 803.89],
                     [-1.64624290E+00,  3.89625197E-02, -4.31124593E-05,
                       2.97071589E-08, -8.80200440E-12, -7.92805340E+03,
                       9.27319544E+00]),
                NASA([803.89, 5000.00],
                     [ 1.97599860E+00,  2.09382411E-02, -9.47914613E-06,
                       1.81392354E-09, -1.27205831E-13, -8.51040717E+03,
                      -7.41117371E+00])))

species(name=u'C4H7X(41)',
        atoms='H:7 C:4 X:1',
        thermo=(NASA([100.00, 971.02],
                     [ 2.64368251E+00,  1.79003685E-02,  4.24457324E-05,
                      -6.44047422E-08,  2.49602315E-11, -3.72241019E+03,
                      -6.70003109E+00]),
                NASA([971.02, 5000.00],
                     [ 9.25860008E+00,  2.04066151E-02, -7.39155270E-06,
                       1.37023983E-09, -9.94156257E-14, -6.40984447E+03,
                      -4.56419548E+01])))

species(name=u'C4H7X(42)',
        atoms='H:7 C:4 X:1',
        thermo=(NASA([100.00, 986.68],
                     [ 2.45797290E+00,  2.47218439E-02,  2.01282012E-05,
                      -4.02730332E-08,  1.62483577E-11,  4.67977862E+03,
                      -5.12988514E+00]),
                NASA([986.68, 5000.00],
                     [ 8.87901611E+00,  2.09043388E-02, -7.83847728E-06,
                       1.44075651E-09, -1.02346191E-13,  2.33140726E+03,
                      -4.15009568E+01])))

species(name=u'C4H7X(43)',
        atoms='H:7 C:4 X:1',
        thermo=(NASA([100.00, 965.04],
                     [ 2.56885679E+00,  1.97490862E-02,  3.72996972E-05,
                      -6.04065123E-08,  2.40010228E-11, -3.99383312E+03,
                      -8.56593019E+00]),
                NASA([965.04, 5000.00],
                     [ 9.89750247E+00,  1.86147853E-02, -6.38912892E-06,
                       1.17316108E-09, -8.55462900E-14, -6.77000282E+03,
                      -5.07166347E+01])))

species(name=u'C4H7X(44)',
        atoms='H:7 C:4 X:1',
        thermo=(NASA([100.00, 949.34],
                     [ 2.54262411E+00,  1.77379351E-02,  4.93913107E-05,
                      -7.72926578E-08,  3.10681685E-11, -2.76819973E+03,
                      -8.46811948E+00]),
                NASA([949.34, 5000.00],
                     [ 1.15217625E+01,  1.60010436E-02, -4.89849803E-06,
                       8.84035360E-10, -6.63762686E-14, -6.09962181E+03,
                      -5.98873444E+01])))

species(name=u'C4H5X(80)',
        atoms='H:5 C:4 X:1',
        thermo=(NASA([100.00, 936.52],
                     [ 2.68471814E+00,  1.36244384E-02,  5.32592262E-05,
                      -8.32913017E-08,  3.41499632E-11,  5.86936889E+03,
                      -1.06510519E+01]),
                NASA([936.52, 5000.00],
                     [ 1.29012238E+01,  8.96922349E-03, -1.71920361E-06,
                       2.89745198E-10, -2.58686934E-14,  2.24633114E+03,
                      -6.83963240E+01])))

species(name=u'C4H5X(81)',
        atoms='H:5 C:4 X:1',
        thermo=(NASA([100.00, 928.62],
                     [ 2.64239936E+00,  8.31017311E-03,  8.12180670E-05,
                      -1.21403473E-07,  4.98652517E-11,  1.10522745E+04,
                      -1.03935602E+01]),
                NASA([928.62, 5000.00],
                     [ 1.69488231E+01,  2.00857887E-03,  2.03445917E-06,
                      -4.02602194E-10,  1.85354193E-14,  6.00987464E+03,
                      -9.11978215E+01])))

species(name=u'C6H9X(98)',
        atoms='H:9 C:6 X:1',
        thermo=(NASA([100.00, 959.60],
                     [ 9.97331794E-01,  5.45666106E-02, -1.20055408E-05,
                      -2.57207249E-08,  1.47247298E-11,  1.30766369E+04,
                       4.10399517E+00]),
                NASA([959.60, 5000.00],
                     [ 1.47073062E+01,  2.48051643E-02, -8.29412710E-06,
                       1.44241037E-09, -1.00347533E-13,  9.18445930E+03,
                      -6.80435427E+01])))

species(name=u'C6H9X(159)',
        atoms='H:9 C:6 X:1',
        thermo=(NASA([100.00, 977.39],
                     [ 1.58499628E+00,  3.64527959E-02,  3.83868882E-05,
                      -7.37849038E-08,  3.01376394E-11, -1.49213677E+03,
                       1.74552652E+00]),
                NASA([977.39, 5000.00],
                     [ 1.38451375E+01,  2.70865304E-02, -9.86826977E-06,
                       1.84856916E-09, -1.35053147E-13, -5.83792513E+03,
                      -6.70936715E+01])))

species(name=u'SX(160)',
        atoms='H:11 C:8 X:1',
        thermo=(NASA([100.00, 1058.51],
                     [ 2.77433561E-01,  6.83910853E-02, -1.84634338E-05,
                      -1.98727096E-08,  1.09633681E-11,  1.49623516E+04,
                       8.01793261E+00]),
                NASA([1058.51, 5000.00],
                     [ 1.52785062E+01,  3.91239359E-02, -1.58465575E-05,
                       2.95215026E-09, -2.07520787E-13,  1.02504542E+04,
                      -7.24627289E+01])))

species(name=u'C6H9X(192)',
        atoms='H:9 C:6 X:1',
        thermo=(NASA([100.00, 995.65],
                     [ 1.00156767E+00,  5.37833423E-02, -1.05083627E-05,
                      -2.52890803E-08,  1.36191022E-11,  1.25541450E+04,
                       4.73933245E+00]),
                NASA([995.65, 5000.00],
                     [ 1.48280231E+01,  2.56880474E-02, -9.53960436E-06,
                       1.75503504E-09, -1.24934189E-13,  8.44019604E+03,
                      -6.87382183E+01])))

species(name=u'SX(197)',
        atoms='H:11 C:8 X:1',
        thermo=(NASA([100.00, 970.37],
                     [ 5.31888753E-02,  6.71974460E-02,  4.47967233E-06,
                      -5.81686632E-08,  2.81729684E-11,  1.23204010E+04,
                       9.58549953E+00]),
                NASA([970.37, 5000.00],
                     [ 2.04532044E+01,  2.99984680E-02, -1.05050701E-05,
                       1.92654254E-09, -1.39849888E-13,  6.15354110E+03,
                      -9.95950068E+01])))

species(name=u'SX(198)',
        atoms='H:11 C:8 X:1',
        thermo=(NASA([100.00, 978.48],
                     [-2.03188329E-01,  8.00305306E-02, -4.14445305E-05,
                      -6.30400942E-09,  9.29379931E-12,  1.90630066E+04,
                       9.78673596E+00]),
                NASA([978.48, 5000.00],
                     [ 1.79003685E+01,  3.33652588E-02, -1.18215599E-05,
                       2.07054535E-09, -1.42297671E-13,  1.42113414E+04,
                      -8.38469130E+01])))

species(name=u'C6H9X(642)',
        atoms='H:9 C:6 X:1',
        thermo=(NASA([100.00, 982.39],
                     [ 1.17196924E+00,  4.77163336E-02,  9.25993257E-06,
                      -4.64652305E-08,  2.11960917E-11,  4.83666693E+03,
                       1.23448531E+00]),
                NASA([982.39, 5000.00],
                     [ 1.50561182E+01,  2.55319447E-02, -9.31171984E-06,
                       1.72742083E-09, -1.24863595E-13,  4.51290568E+02,
                      -7.39375821E+01])))

species(name=u'C5H7X(645)',
        atoms='H:7 C:5 X:1',
        thermo=(NASA([100.00, 955.26],
                     [ 2.14814046E+00,  2.30464074E-02,  5.52813671E-05,
                      -8.99925854E-08,  3.64781036E-11,  6.51350488E+03,
                      -3.17021989E-01]),
                NASA([955.26, 5000.00],
                     [ 1.41483404E+01,  1.72242751E-02, -5.33830663E-06,
                       9.99839018E-10, -7.72223846E-14,  2.19383803E+03,
                      -6.82715243E+01])))

species(name=u'SX(706)',
        atoms='H:11 C:8 X:1',
        thermo=(NASA([100.00, 970.37],
                     [ 5.31888753E-02,  6.71974460E-02,  4.47967233E-06,
                      -5.81686632E-08,  2.81729684E-11,  1.23204010E+04,
                       9.58549953E+00]),
                NASA([970.37, 5000.00],
                     [ 2.04532044E+01,  2.99984680E-02, -1.05050701E-05,
                       1.92654254E-09, -1.39849888E-13,  6.15354110E+03,
                      -9.95950068E+01])))

species(name=u'SX(708)',
        atoms='H:11 C:8 X:1',
        thermo=(NASA([100.00, 971.40],
                     [ 1.41381563E-02,  6.90601464E-02, -2.81816593E-06,
                      -5.01496480E-08,  2.53089095E-11,  1.17809270E+04,
                       7.57444528E+00]),
                NASA([971.40, 5000.00],
                     [ 2.02696948E+01,  2.98290181E-02, -1.04553389E-05,
                       1.90870667E-09, -1.37813194E-13,  5.76140684E+03,
                      -1.00287380E+02])))

species(name=u'SX(711)',
        atoms='H:11 C:8 X:1',
        thermo=(NASA([100.00, 962.25],
                     [-2.36809030E-02,  6.79479401E-02,  5.43927119E-06,
                      -6.22121258E-08,  3.04405256E-11,  1.28971922E+04,
                       7.63963110E+00]),
                NASA([962.25, 5000.00],
                     [ 2.16695172E+01,  2.75463981E-02, -9.17246115E-06,
                       1.66770016E-09, -1.22177011E-13,  6.41789886E+03,
                      -1.08156892E+02])))

species(name=u'C6H9X(822)',
        atoms='H:9 C:6 X:1',
        thermo=(NASA([100.00, 963.89],
                     [ 1.36436804E+00,  3.75104455E-02,  4.64408601E-05,
                      -9.02227457E-08,  3.78048585E-11, -1.53018622E+03,
                      -1.08331674E+00]),
                NASA([963.89, 5000.00],
                     [ 1.75347116E+01,  2.11302230E-02, -7.00446103E-06,
                       1.33730315E-09, -1.02624416E-13, -7.00385080E+03,
                      -9.07243793E+01])))

species(name=u'C6H9X(823)',
        atoms='H:9 C:6 X:1',
        thermo=(NASA([100.00, 961.61],
                     [ 9.56140456E-01,  5.11597557E-02,  6.21824187E-06,
                      -4.93480271E-08,  2.38497187E-11,  5.34799416E+03,
                       7.62886143E-01]),
                NASA([961.61, 5000.00],
                     [ 1.73731438E+01,  2.12319844E-02, -6.93766407E-06,
                       1.25830622E-09, -9.23394528E-14,  4.16983843E+02,
                      -8.70193173E+01])))

species(name=u'C6H9X(824)',
        atoms='H:9 C:6 X:1',
        thermo=(NASA([100.00, 961.61],
                     [ 9.56140456E-01,  5.11597557E-02,  6.21824187E-06,
                      -4.93480271E-08,  2.38497187E-11,  5.34799416E+03,
                       7.62886143E-01]),
                NASA([961.61, 5000.00],
                     [ 1.73731438E+01,  2.12319844E-02, -6.93766407E-06,
                       1.25830622E-09, -9.23394528E-14,  4.16983843E+02,
                      -8.70193173E+01])))

species(name=u'SX(950)',
        atoms='H:11 C:8 X:1',