units(length='cm', time='s', quantity='mol', act_energy='kcal/mol')

ideal_gas(name='gas',
          elements="H D T C Ci O Oi N Ne Ar He Si S Cl X",
          species="""n-heptane   Ar          He          Ne
                     N2          C2H4(2)     C4H8-1(3)   C4H8-2(4)
                     C4H6(7)     C6H8(9)     C3H6(32)    H2(68)
                     C6H10(258)  C8H12(259)  C5H8c(427)  C8H12(709)
                     CH4(1247)   S(1273)     C2H6(1293)  S(1740)
                     S(1743)     S(1744)     S(1746)     C3H8(1760)
                     S(1766)     C4H8(2043)  S(2326)     S(2423)
                     S(3311)     S(3971)     S(4495)     S(4750)
                     S(4805)     S(5386)     S(6351)     S(6457)
                     S(6611)     S(6762)     S(6930)     S(8724)
                     S(8802)     S(8803)     S(9496)""",
          reactions='gas-*',
          transport='Mix',
          initial_state=state(temperature=300.0, pressure=OneAtm))

ideal_interface(name='surface1',
                elements="H D T C Ci O Oi N Ne Ar He Si S Cl X",
                species="""X(1)        HX(5)       C2H3X(37)   allylX(38)
                          CH3X(39)    C2H5X(40)   C4H7X(41)   C4H7X(42)
                          C4H7X(43)   C4H7X(44)   C3H5X(45)   C4H7X(46)
                          C4H7X(47)   C4H5X(80)   C4H5X(81)   C6H9X(98)
                          SX(109)     SX(110)     C6H9X(115)  SX(120)
                          SX(121)     C6H7X(142)  C6H7X(143)  C6H7X(144)
                          C6H9X(169)  SX(219)     C6H7X(233)  C6H9X(249)
                          C5H7X(252)  SX(316)     SX(318)     SX(319)
                          SX(321)     SX(322)     C6H9X(432)  C6H9X(433)
                          C6H9X(434)  SX(470)     SX(471)     SX(472)
                          SX(473)     C6H9X(560)  C6H9X(588)  C6H9X(589)
                          C6H9X(590)  C6H9X(667)  C3H5X(670)  SX(673)
                          C6H9X(701)  C6H9X(702)  C4H7X(704)  SX(733)
                          SX(760)     SX(762)     SX(763)     C6H9X(789)
                          C6H9X(790)  C6H9X(823)  SX(825)     SX(826)
                          SX(827)     SX(857)     C6H9X(887)  SX(890)
                          C6H9X(923)  SX(1006)    SX(1030)    SX(1115)
                          SX(1117)    SX(1118)    SX(1209)    SX(1243)
                          SX(1252)    SX(1253)    SX(1295)    SX(1296)
                          SX(1348)    SX(1349)    SX(1350)    SX(1583)
                          SX(1636)    SX(1724)    SX(1771)    SX(1787)
                          SX(1801)    SX(1804)    SX(1876)    SX(2099)
                          SX(2125)    SX(2195)    SX(2410)    SX(2460)
                          SX(2525)    SX(2569)    SX(2641)    SX(2642)
                          SX(2685)    SX(2686)    SX(3050)    SX(3094)
                          SX(3095)    SX(3101)    SX(3103)    SX(3142)
                          SX(3214)    SX(3243)    SX(3244)    SX(3245)
                          SX(3298)    SX(3302)    SX(3330)    SX(3359)
                          SX(3418)    SX(3419)    SX(3420)    SX(3421)
                          SX(3422)    SX(3583)    SX(3606)    SX(3636)
                          SX(3664)    SX(3724)    SX(3725)    SX(3758)
                          SX(3759)    SX(3873)    SX(3902)    SX(3926)
                          SX(3928)    SX(3991)    SX(3992)    SX(4046)
                          SX(4047)    SX(4076)    SX(4077)    SX(4080)
                          SX(4081)    SX(4128)    SX(4155)    SX(4241)
                          SX(4502)    SX(4503)    SX(4505)    SX(4506)
                          SX(4507)    SX(4707)    SX(4738)    SX(4739)
                          SX(4795)    SX(4873)    SX(4939)    SX(4992)
                          SX(4993)    SX(5002)    SX(5051)    SX(5052)
                          SX(5062)    SX(5178)    SX(5266)    SX(5294)
                          SX(5316)    SX(5377)    SX(5751)    SX(5786)
                          SX(5917)    SX(6192)    SX(6193)    SX(6342)
                          SX(6425)    SX(6448)    SX(6600)    SX(6602)
                          SX(6671)    SX(6726)    SX(6727)    SX(6729)
                          SX(6731)    SX(6757)    SX(6759)    SX(6798)
                          SX(6799)    SX(6829)    SX(6830)    SX(6831)
                          SX(6859)    SX(6916)    SX(6917)    SX(6920)
                          SX(6947)    SX(6980)    SX(7024)    SX(7025)
                          SX(7107)    SX(7110)    SX(7259)    SX(7260)
                          SX(7261)    SX(7517)    SX(7541)    SX(7542)
                          SX(7787)    SX(7921)    SX(7980)    SX(8018)
                          SX(8020)    SX(8257)    SX(8261)    SX(8348)
                          SX(8539)    SX(8576)    SX(8591)    SX(8592)
                          SX(8597)    SX(8598)    SX(8599)    SX(8600)
                          SX(8640)    SX(8641)    SX(8650)    SX(8651)
                          SX(8660)    SX(8676)    SX(8683)    SX(8684)
                          SX(8694)    SX(8695)    SX(8703)    SX(8721)
                          SX(8765)    SX(8766)    SX(8798)    SX(8800)
                          SX(8855)    SX(8857)    SX(8964)    SX(8975)
                          SX(8976)    SX(8999)    SX(9001)    SX(9030)
                          SX(9055)    SX(9081)    SX(9088)    SX(9102)
                          SX(9103)    SX(9104)    SX(9105)    SX(9135)
                          SX(9141)    SX(9142)    SX(9143)    SX(9144)
                          SX(9160)    SX(9171)    SX(9184)    SX(9185)
                          SX(9186)    SX(9189)    SX(9225)    SX(9235)
                          SX(9236)    SX(9255)    SX(9259)    SX(9283)
                          SX(9284)    SX(9315)    SX(9318)    SX(9502)
                          SX(9592)""",
                site_density=2.72e-09,
                phases="gas",
          reactions='surface1-*',
                initial_state=state(temperature=300.0, pressure=OneAtm))

#-------------------------------------------------------------------------------
# Element data
#-------------------------------------------------------------------------------

element(symbol=u'X', atomic_mass=195.083)
element(symbol=u'Ci', atomic_mass=13.003)
element(symbol=u'D', atomic_mass=2.014)
element(symbol=u'Oi', atomic_mass=18.0)
element(symbol=u'T', atomic_mass=3.016)
#-------------------------------------------------------------------------------
# Species data
#-------------------------------------------------------------------------------

species(name=u'n-heptane',
        atoms='H:16 C:7',
        thermo=(NASA([100.00, 1262.73],
                     [-2.91681405E-03,  7.69373649E-02, -3.48025563E-05,
                       1.86095180E-09,  2.01573617E-12, -2.57829342E+04,
                       3.00312148E+01]),
                NASA([1262.73, 5000.00],
                     [ 1.38377915E+01,  4.85945016E-02, -1.95474548E-05,
                       3.52837178E-09, -2.39064676E-13, -3.05141556E+04,
                      -4.48642836E+01])),
        transport=gas_transport(geom='nonlinear',
                                diam=6.366,
                                well_depth=402.997))

species(name=u'Ar',
        atoms='Ar:1',
        thermo=(NASA([200.00, 1000.00],
                     [ 2.50000000E+00,  0.00000000E+00,  0.00000000E+00,
                       0.00000000E+00,  0.00000000E+00, -7.45375000E+02,
                       4.37967000E+00]),
                NASA([1000.00, 6000.00],
                     [ 2.50000000E+00,  0.00000000E+00,  0.00000000E+00,
                       0.00000000E+00,  0.00000000E+00, -7.45375000E+02,
                       4.37967000E+00])),
        transport=gas_transport(geom='atom',
                                diam=3.33,
                                well_depth=136.5))

species(name=u'He',
        atoms='He:1',
        thermo=(NASA([200.00, 1000.00],
                     [ 2.50000000E+00,  0.00000000E+00,  0.00000000E+00,
                       0.00000000E+00,  0.00000000E+00, -7.45375000E+02,
                       9.28724000E-01]),
                NASA([1000.00, 6000.00],
                     [ 2.50000000E+00,  0.00000000E+00,  0.00000000E+00,
                       0.00000000E+00,  0.00000000E+00, -7.45375000E+02,
                       9.28724000E-01])),
        transport=gas_transport(geom='atom',
                                diam=2.576,
                                well_depth=10.2))

species(name=u'Ne',
        atoms='Ne:1',
        thermo=(NASA([200.00, 1000.00],
                     [ 2.50000000E+00,  0.00000000E+00,  0.00000000E+00,
                       0.00000000E+00,  0.00000000E+00, -7.45375000E+02,
                       3.35532000E+00]),
                NASA([1000.00, 6000.00],
                     [ 2.50000000E+00,  0.00000000E+00,  0.00000000E+00,
                       0.00000000E+00,  0.00000000E+00, -7.45375000E+02,
                       3.35532000E+00])),
        transport=gas_transport(geom='atom',
                                diam=3.758,
                                well_depth=148.6))

species(name=u'N2',
        atoms='N:2',
        thermo=(NASA([200.00, 1000.00],
                     [ 3.53101000E+00, -1.23661000E-04, -5.02999000E-07,
                       2.43531000E-09, -1.40881000E-12, -1.04698000E+03,
                       2.96747000E+00]),
                NASA([1000.00, 6000.00],
                     [ 2.95258000E+00,  1.39690000E-03, -4.92632000E-07,
                       7.86010000E-11, -4.60755000E-15, -9.23949000E+02,
                       5.87189000E+00])),
        transport=gas_transport(geom='linear',
                                diam=3.621,
                                well_depth=97.53,
                                polar=1.76,
                                rot_relax=4.0))

species(name=u'C2H4(2)',
        atoms='H:4 C:2',
        thermo=(NASA([100.00, 979.36],
                     [ 3.97471606E+00, -4.75844285E-03,  4.16783770E-05,
                      -4.51392516E-08,  1.54224761E-11,  4.91540746E+03,
                       3.62430844E+00]),
                NASA([979.36, 5000.00],
                     [ 3.55660610E+00,  1.10627464E-02, -4.17019079E-06,
                       7.85586770E-10, -5.70060829E-14,  4.32046489E+03,
                       2.17719479E+00])),
        transport=gas_transport(geom='nonlinear',
                                diam=3.971,
                                well_depth=280.8,
                                rot_relax=1.5))

species(name=u'C4H8-1(3)',
        atoms='H:8 C:4',
        thermo=(NASA([100.00, 1007.28],
                     [ 2.58772906E+00,  2.32777969E-02,  1.93412349E-05,
                      -3.55496333E-08,  1.36906009E-11, -1.91872926E+03,
                       1.45750618E+01]),
                NASA([1007.28, 5000.00],
                     [ 7.20517168E+00,  2.36361568E-02, -9.03150028E-06,
                       1.65392666E-09, -1.16019260E-13, -3.79733937E+03,
                      -1.24426257E+01])),
        transport=gas_transport(geom='nonlinear',
                                diam=5.176,
                                well_depth=357.002,
                                rot_relax=1.0))

species(name=u'C4H8-2(4)',
        atoms='H:8 C:4',
        thermo=(NASA([100.00, 1157.79],
                     [ 2.51998327E+00,  2.76812799E-02,  9.43783469E-07,
                      -1.25009101E-08,  4.67144666E-12, -3.34374767E+03,
                       1.30195623E+01]),
                NASA([1157.79, 5000.00],
                     [ 6.04225708E+00,  2.60072350E-02, -1.04843374E-05,
                       1.90880922E-09, -1.30600505E-13, -4.86276511E+03,
                      -7.52715109E+00])),
        transport=gas_transport(geom='nonlinear',
                                diam=5.289,
                                well_depth=359.053))

species(name=u'C4H6(7)',
        atoms='H:6 C:4',
        thermo=(NASA([100.00, 946.05],
                     [ 2.80599310E+00,  1.02584471E-02,  6.17260255E-05,
                      -9.01642687E-08,  3.59116961E-11,  1.16584972E+04,
                       1.20621434E+01]),
                NASA([946.05, 5000.00],
                     [ 1.24693720E+01,  1.00553901E-02, -2.41206872E-06,
                       4.57077303E-10, -3.93160571E-14,  8.01077795E+03,
                      -4.36374720E+01])),
        transport=gas_transport(geom='nonlinear',
                                diam=5.18,
                                well_depth=357.002,
                                rot_relax=1.0))

species(name=u'C6H8(9)',
        atoms='H:8 C:6',
        thermo=(NASA([100.00, 941.22],
                     [ 1.38427980E+00,  4.14411503E-02,  1.94287417E-05,
                      -6.16688700E-08,  2.86503633E-11,  1.76317461E+04,
                       1.93257509E+01]),
                NASA([941.22, 5000.00],
                     [ 1.69619680E+01,  1.57221707E-02, -4.10118367E-06,
                       6.95736344E-10, -5.26521484E-14,  1.29061672E+04,
                      -6.44097553E+01])),
        transport=gas_transport(geom='nonlinear',
                                diam=5.514,
                                well_depth=396.052))

species(name=u'C3H6(32)',
        atoms='H:6 C:3',
        thermo=(NASA([100.00, 983.75],
                     [ 3.31912102E+00,  8.17958674E-03,  3.34736123E-05,
                      -4.36193684E-08,  1.58213364E-11,  7.49325328E+02,
                       9.54025058E+00]),
                NASA([983.75, 5000.00],
                     [ 5.36755173E+00,  1.70743019E-02, -6.35107626E-06,
                       1.16619529E-09, -8.27620279E-14, -4.87138326E+02,
                      -4.54467529E+00])),
        transport=gas_transport(geom='nonlinear',
                                diam=4.982,
                                well_depth=266.801,
                                rot_relax=1.0))

species(name=u'H2(68)',
        atoms='H:2',
        thermo=(NASA([100.00, 1959.08],
                     [ 3.43536412E+00,  2.12710353E-04, -2.78625043E-07,
                       3.40267167E-10, -7.76031998E-14, -1.03135984E+03,
                      -3.90841732E+00]),
                NASA([1959.08, 5000.00],
                     [ 2.78816583E+00,  5.87640942E-04,  1.59010417E-07,
                      -5.52739026E-11,  4.34310984E-15, -5.96144270E+02,
                       1.12732655E-01])),
        transport=gas_transport(geom='linear',
                                diam=2.833,
                                well_depth=59.7))

species(name=u'C6H10(258)',
        atoms='H:10 C:6',
        thermo=(NASA([100.00, 1020.63],
                     [ 9.97427413E-01,  5.59777045E-02, -2.05880600E-05,
                      -1.17182304E-08,  8.13452041E-12,  6.30749855E+03,
                       2.38941836E+01]),
                NASA([1020.63, 5000.00],
                     [ 1.33828218E+01,  2.83661253E-02, -1.07663110E-05,
                       1.95749020E-09, -1.36589418E-13,  2.68926840E+03,
                      -4.14511818E+01])),
        transport=gas_transport(geom='nonlinear',
                                diam=5.673,
                                well_depth=388.08))

species(name=u'C8H12(259)',
        atoms='H:12 C:8',
        thermo=(NASA([100.00, 1002.94],
                     [ 1.69489980E-02,  7.28189377E-02, -2.16585698E-05,
                      -2.40807783E-08,  1.44597041E-11,  1.38562447E+04,
                       3.07679077E+01]),
                NASA([1002.94, 5000.00],
                     [ 1.77276883E+01,  3.45993801E-02, -1.29781828E-05,
                       2.37500136E-09, -1.67643536E-13,  8.67334638E+03,
                      -6.28559377E+01])),
        transport=gas_transport(geom='nonlinear',
                                diam=6.098,
                                well_depth=423.433))

species(name=u'C5H8c(427)',
        atoms='H:8 C:5',
        thermo=(NASA([100.00, 1004.86],
                     [ 1.98273955E+00,  3.49998332E-02,  6.98515281E-06,
                      -3.05031334E-08,  1.32246652E-11,  6.96521034E+03,
                       1.60818191E+01]),
                NASA([1004.86, 5000.00],
                     [ 1.01246420E+01,  2.42323877E-02, -9.24886971E-06,
                       1.70115950E-09, -1.20059732E-13,  4.23624320E+03,
                      -2.86745770E+01])),
        transport=gas_transport(geom='nonlinear',
                                diam=5.354,
                                well_depth=369.973))

species(name=u'C8H12(709)',
        atoms='H:12 C:8',
        thermo=(NASA([100.00, 1016.52],
                     [-1.10429280E-01,  7.70814645E-02, -3.47833140E-05,
                      -1.00302869E-08,  9.42640217E-12,  1.21750142E+04,
                       2.97645889E+01]),
                NASA([1016.52, 5000.00],
                     [ 1.75623558E+01,  3.50022757E-02, -1.32158186E-05,
                       2.40320183E-09, -1.68059077E-13,  7.16317806E+03,
                      -6.27651255E+01])),
        transport=gas_transport(geom='nonlinear',
                                diam=6.124,
                                well_depth=426.137))

species(name=u'CH4(1247)',
        atoms='H:4 C:1',
        thermo=(NASA([100.00, 1084.12],
                     [ 4.20541524E+00, -5.35557362E-03,  2.51123265E-05,
                      -2.13762843E-08,  5.97523937E-12, -1.01619433E+04,
                      -9.21279283E-01]),
                NASA([1084.12, 5000.00],
                     [ 9.08265721E-01,  1.14540858E-02, -4.57173828E-06,
                       8.29191671E-10, -5.66314895E-14, -9.71997444E+03,
                       1.39930944E+01])),
        transport=gas_transport(geom='nonlinear',
                                diam=3.746,
                                well_depth=141.4,
                                polar=2.6,
                                rot_relax=13.0))

species(name=u'S(1273)',
        atoms='H:12 C:7',
        thermo=(NASA([100.00, 1016.70],
                     [ 3.01260003E-01,  6.93239326E-02, -2.79061455E-05,
                      -1.19417116E-08,  9.27990587E-12, -3.26068174E+02,
                       2.53851511E+01]),
                NASA([1016.70, 5000.00],
                     [ 1.55703568E+01,  3.41922940E-02, -1.28717489E-05,
                       2.32849221E-09, -1.62040961E-13, -4.71997327E+03,
                      -5.48718412E+01])),
        transport=gas_transport(geom='nonlinear',
                                diam=6.014,
                                well_depth=408.468))

species(name=u'C2H6(1293)',
        atoms='H:6 C:2',
        thermo=(NASA([100.00, 1012.42],
                     [ 3.72239291E+00,  1.65083841E-03,  3.44175530E-05,
                      -3.76858229E-08,  1.24450657E-11, -1.15575901E+04,
                       4.68247999E+00]),
                NASA([1012.42, 5000.00],
                     [ 2.82848257E+00,  1.73040568E-02, -6.73334245E-06,
                       1.23742024E-09, -8.65676410E-14, -1.19978080E+04,
                       5.93811707E+00])),
        transport=gas_transport(geom='nonlinear',
                                diam=4.302,
                                well_depth=252.3,
                                rot_relax=1.5))

species(name=u'S(1740)',
        atoms='H:14 C:8',
        thermo=(NASA([100.00, 1506.76],
                     [ 5.49675181E-02,  8.43985440E-02, -5.64633487E-05,
                       1.98661295E-08, -2.94599969E-12, -7.77393079E+02,
                       2.95663347E+01]),
                NASA([1506.76, 5000.00],
                     [ 1.39949012E+01,  4.73919655E-02, -1.96226018E-05,
                       3.56583689E-09, -2.41458224E-13, -4.97819756E+03,
                      -4.34005510E+01])),
        transport=gas_transport(geom='nonlinear',
                                diam=6.336,
                                well_depth=426.003))

species(name=u'S(1743)',
        atoms='H:14 C:8',
        thermo=(NASA([100.00, 1014.29],
                     [-3.67121846E-01,  8.14233516E-02, -3.11110886E-05,
                      -1.65487757E-08,  1.19185866E-11, -3.02333684E+03,
                       3.00035003E+01]),
                NASA([1014.29, 5000.00],
                     [ 1.79686767E+01,  3.98264136E-02, -1.50150741E-05,
                       2.72531006E-09, -1.90287561E-13, -8.32275149E+03,
                      -6.65042554E+01])),
        transport=gas_transport(geom='nonlinear',
                                diam=6.328,
                                well_depth=425.761))

species(name=u'S(1744)',
        atoms='H:14 C:8',
        thermo=(NASA([100.00, 1016.25],
                     [-1.96777655E-01,  7.73097837E-02, -2.22069863E-05,
                      -2.37965356E-08,  1.39851151E-11, -2.84093532E+03,
                       3.12908370E+01]),
                NASA([1016.25, 5000.00],
                     [ 1.72431734E+01,  4.07120734E-02, -1.54898359E-05,
                       2.82734689E-09, -1.98026375E-13, -8.04042418E+03,
                      -6.12697843E+01])),
        transport=gas_transport(geom='nonlinear',
                                diam=6.376,
                                well_depth=433.055))

species(name=u'S(1746)',
        atoms='H:14 C:8',
        thermo=(NASA([100.00, 999.32],
                     [-8.27296041E-02,  7.33926821E-02, -9.70961131E-06,
                      -3.77339221E-08,  1.91784792E-11, -2.27794802E+03,
                       3.16114703E+01]),
                NASA([999.32, 5000.00],
                     [ 1.74908493E+01,  3.99675318E-02, -1.49508424E-05,
                       2.72972667E-09, -1.92366979E-13, -7.63361766E+03,
                      -6.23819175E+01])),
        transport=gas_transport(geom='nonlinear',
                                diam=6.384,
                                well_depth=433.303))

species(name=u'C3H8(1760)',
        atoms='H:8 C:3',
        thermo=(NASA([100.00, 989.99],
                     [ 3.06336167E+00,  1.29214561E-02,  3.47032808E-05,
                      -4.70946154E-08,  1.71384141E-11, -1.43905789E+04,
                       1.07835592E+01]),
                NASA([989.99, 5000.00],
                     [ 5.60440043E+00,  2.19528785E-02, -8.22080610E-06,
                       1.50103993E-09, -1.05635358E-13, -1.58394038E+04,
                      -6.22623300E+00])),
        transport=gas_transport(geom='nonlinear',
                                diam=4.982,
                                well_depth=266.801,
                                rot_relax=1.0))

species(name=u'S(1766)',
        atoms='H:16 C:10',
        thermo=(NASA([100.00, 1085.29],
                     [-1.70092362E+00,  1.10044958E-01, -7.12157681E-05,
                       1.53374028E-08,  1.69886408E-12,  4.98893716E+03,
                       3.89900867E+01]),
                NASA([1085.29, 5000.00],
                     [ 2.16427124E+01,  4.79853148E-02, -1.85808259E-05,
                       3.36146218E-09, -2.31602558E-13, -1.49004692E+03,
                      -8.20455320E+01])),
        transport=gas_transport(geom='nonlinear',
                                diam=6.773,
                                well_depth=462.476))

species(name=u'C4H8(2043)',
        atoms='H:8 C:4',
        thermo=(NASA([100.00, 1061.33],
                     [ 2.52504770E+00,  2.64752782E-02,  7.08359238E-06,
                      -2.07731462E-08,  8.00430055E-12, -4.02607130E+03,
                       1.28857274E+01]),
                NASA([1061.33, 5000.00],
                     [ 6.48672669E+00,  2.49943921E-02, -9.83283171E-06,
                       1.79343299E-09, -1.24008235E-13, -5.62452310E+03,
                      -1.00316397E+01])),
        transport=gas_transport(geom='nonlinear',
                                diam=5.238,
                                well_depth=351.146))

species(name=u'S(2326)',
        atoms='H:16 C:10',
        thermo=(NASA([100.00, 1050.23],
                     [-1.54493814E+00,  1.05468860E-01, -5.71170539E-05,
                       2.19606261E-10,  7.09552345E-12,  6.66890775E+03,
                       3.98893243E+01]),
                NASA([1050.23, 5000.00],
                     [ 2.15402055E+01,  4.80180651E-02, -1.85864175E-05,
                       3.38935389E-09, -2.35755397E-13,  1.39391206E+02,
                      -8.06155283E+01])),
        transport=gas_transport(geom='nonlinear',
                                diam=6.748,
                                well_depth=459.877))

species(name=u'S(2423)',
        atoms='H:10 C:6',
        thermo=(NASA([100.00, 1020.63],
                     [ 9.97427413E-01,  5.59777045E-02, -2.05880600E-05,
                      -1.17182304E-08,  8.13452041E-12,  2.84333919E+03,
                       1.95659973E+01]),
                NASA([1020.63, 5000.00],
                     [ 1.33828218E+01,  2.83661253E-02, -1.07663110E-05,
                       1.95749020E-09, -1.36589418E-13, -7.74890955E+02,
                      -4.57793681E+01])),
        transport=gas_transport(geom='nonlinear',
                                diam=5.698,
                                well_depth=390.841))

species(name=u'S(3311)',
        atoms='H:18 C:10',
        thermo=(NASA([100.00, 1158.48],
                     [-1.73167591E+00,  1.09077891E-01, -5.83333229E-05,
                       5.40067358E-09,  3.60301005E-12, -6.92483725E+03,
                       4.08092886E+01]),
                NASA([1158.48, 5000.00],
                     [ 2.11409181E+01,  5.59043600E-02, -2.28913870E-05,
                       4.22976090E-09, -2.93014074E-13, -1.39556654E+04,
                      -8.03749852E+01])),
        transport=gas_transport(geom='nonlinear',
                                diam=7.002,
                                well_depth=463.304))

species(name=u'S(3971)',
        atoms='H:14 C:8',
        thermo=(NASA([100.00, 1061.60],
                     [-2.92612015E-01,  8.13598166E-02, -3.75111047E-05,
                      -5.26746011E-09,  6.79996745E-12, -3.15203310E+03,
                       3.11249298E+01]),
                NASA([1061.60, 5000.00],
                     [ 1.65258017E+01,  4.22160438E-02, -1.64331635E-05,
                       2.99218456E-09, -2.07335165E-13, -8.08806756E+03,
                      -5.74492182E+01])),
        transport=gas_transport(geom='nonlinear',
                                diam=6.376,
                                well_depth=433.055))

species(name=u'S(4495)',
        atoms='H:12 C:7',
        thermo=(NASA([100.00, 1002.43],
                     [ 5.99026497E-01,  6.08356728E-02, -5.37073264E-06,
                      -3.39970972E-08,  1.67132278E-11,  1.51423754E+03,
                       2.71654250E+01]),
                NASA([1002.43, 5000.00],
                     [ 1.50955492E+01,  3.44559544E-02, -1.29812324E-05,
                       2.37752287E-09, -1.67696341E-13, -2.97306291E+03,
                      -5.06926804E+01])),
        transport=gas_transport(geom='nonlinear',
                                diam=6.037,
                                well_depth=413.195))

species(name=u'S(4750)',
        atoms='H:18 C:10',
        thermo=(NASA([100.00, 1038.10],
                     [-1.63606842E+00,  1.05948223E-01, -4.48721255E-05,
                      -1.37610845E-08,  1.19267863E-11, -9.13856725E+03,
                       4.08578356E+01]),
                NASA([1038.10, 5000.00],
                     [ 2.12270975E+01,  5.35110627E-02, -2.06291097E-05,
                       3.76028699E-09, -2.61802446E-13, -1.58068004E+04,
                      -7.95529940E+01])),
        transport=gas_transport(geom='nonlinear',
                                diam=7.031,
                                well_depth=469.445))

species(name=u'S(4805)',
        atoms='H:18 C:10',
        thermo=(NASA([100.00, 1039.92],
                     [-1.68892614E+00,  1.04892160E-01, -3.63678012E-05,
                      -2.44904322E-08,  1.57571722E-11, -8.20566676E+03,
                       3.91111957E+01]),
                NASA([1039.92, 5000.00],
                     [ 2.26524637E+01,  5.26991456E-02, -2.08505326E-05,
                       3.87716665E-09, -2.73674615E-13, -1.55087267E+04,
                      -9.00469670E+01])),
        transport=gas_transport(geom='nonlinear',
                                diam=7.05,
                                well_depth=470.405))

species(name=u'S(5386)',
        atoms='H:18 C:10',
        thermo=(NASA([100.00, 1188.78],
                     [-1.95300717E+00,  1.15046892E-01, -7.59923563E-05,
                       2.20571103E-08, -1.46154816E-12, -1.03349424E+04,
                       4.06077933E+01]),
                NASA([1188.78, 5000.00],
                     [ 2.15567328E+01,  5.36921349E-02, -2.09728234E-05,
                       3.76285270E-09, -2.55770737E-13, -1.71787854E+04,
                      -8.21540077E+01])),
        transport=gas_transport(geom='nonlinear',
                                diam=7.023,
                                well_depth=469.212))

species(name=u'S(6351)',
        atoms='H:18 C:10',
        thermo=(NASA([100.00, 1091.06],
                     [-1.75140178E+00,  1.10205167E-01, -6.07838718E-05,
                       5.37602654E-09,  4.56468895E-12, -9.27267051E+03,
                       3.99141768E+01]),
                NASA([1091.06, 5000.00],
                     [ 2.07353004E+01,  5.46510751E-02, -2.13704545E-05,
                       3.87875579E-09, -2.67347996E-13, -1.57797898E+04,
                      -7.78643522E+01])),
        transport=gas_transport(geom='nonlinear',
                                diam=7.031,
                                well_depth=469.445))

species(name=u'S(6457)',
        atoms='H:16 C:9',