units(length='cm', time='s', quantity='mol', act_energy='kcal/mol')

ideal_gas(name='gas',
          elements="H D T C Ci O Oi N Ne Ar He Si S Cl X",
          species="""n-heptane   Ar          He          Ne
                     N2          C2H4(2)     C4H8-1(3)   C4H8-2(4)
                     C4H6(7)     H2(68)      C6H8(111)   C8H10(114)
                     S(192)      S(203)      S(263)      S(308)
                     C8H10(398)  S(504)""",
          reactions='gas-*',
          initial_state=state(temperature=300.0, pressure=OneAtm))

ideal_interface(name='surface1',
                elements="H D T C Ci O Oi N Ne Ar He Si S Cl X",
                species="""X(1)        HX(5)       C2H3X(37)   C4H5X(80)
                          C4H5X(81)   C6H7X(132)  SX(324)     SX(325)
                          SX(327)     SX(328)     SX(329)     SX(331)
                          SX(472)     SX(473)     SX(526)     SX(530)
                          SX(548)     SX(641)""",
                site_density=2.72e-09,
                phases="gas",
          reactions='surface1-*',
                initial_state=state(temperature=300.0, pressure=OneAtm))

#-------------------------------------------------------------------------------
# Element data
#-------------------------------------------------------------------------------

element(symbol=u'X', atomic_mass=195.083)
element(symbol=u'Ci', atomic_mass=13.003)
element(symbol=u'D', atomic_mass=2.014)
element(symbol=u'Oi', atomic_mass=18.0)
element(symbol=u'T', atomic_mass=3.016)
#-------------------------------------------------------------------------------
# Species data
#-------------------------------------------------------------------------------

species(name=u'n-heptane',
        atoms='H:16 C:7',
        thermo=(NASA([100.00, 1262.75],
                     [-2.93512125E-03,  7.69375610E-02, -3.48031525E-05,
                       1.86160506E-09,  2.01550529E-12, -2.57829334E+04,
                       3.00312819E+01]),
                NASA([1262.75, 5000.00],
                     [ 1.38379971E+01,  4.85941816E-02, -1.95472819E-05,
                       3.52833289E-09, -2.39061569E-13, -3.05142526E+04,
                      -4.48654615E+01])))

species(name=u'Ar',
        atoms='Ar:1',
        thermo=(NASA([200.00, 1000.00],
                     [ 2.50000000E+00,  0.00000000E+00,  0.00000000E+00,
                       0.00000000E+00,  0.00000000E+00, -7.45375000E+02,
                       4.37967000E+00]),
                NASA([1000.00, 6000.00],
                     [ 2.50000000E+00,  0.00000000E+00,  0.00000000E+00,
                       0.00000000E+00,  0.00000000E+00, -7.45375000E+02,
                       4.37967000E+00])))

species(name=u'He',
        atoms='He:1',
        thermo=(NASA([200.00, 1000.00],
                     [ 2.50000000E+00,  0.00000000E+00,  0.00000000E+00,
                       0.00000000E+00,  0.00000000E+00, -7.45375000E+02,
                       9.28724000E-01]),
                NASA([1000.00, 6000.00],
                     [ 2.50000000E+00,  0.00000000E+00,  0.00000000E+00,
                       0.00000000E+00,  0.00000000E+00, -7.45375000E+02,
                       9.28724000E-01])))

species(name=u'Ne',
        atoms='Ne:1',
        thermo=(NASA([200.00, 1000.00],
                     [ 2.50000000E+00,  0.00000000E+00,  0.00000000E+00,
                       0.00000000E+00,  0.00000000E+00, -7.45375000E+02,
                       3.35532000E+00]),
                NASA([1000.00, 6000.00],
                     [ 2.50000000E+00,  0.00000000E+00,  0.00000000E+00,
                       0.00000000E+00,  0.00000000E+00, -7.45375000E+02,
                       3.35532000E+00])))

species(name=u'N2',
        atoms='N:2',
        thermo=(NASA([200.00, 1000.00],
                     [ 3.53101000E+00, -1.23661000E-04, -5.02999000E-07,
                       2.43531000E-09, -1.40881000E-12, -1.04698000E+03,
                       2.96747000E+00]),
                NASA([1000.00, 6000.00],
                     [ 2.95258000E+00,  1.39690000E-03, -4.92632000E-07,
                       7.86010000E-11, -4.60755000E-15, -9.23949000E+02,
                       5.87189000E+00])))

species(name=u'C2H4(2)',
        atoms='H:4 C:2',
        thermo=(NASA([100.00, 979.37],
                     [ 3.97469045E+00, -4.75813325E-03,  4.16772624E-05,
                      -4.51377676E-08,  1.54218287E-11,  4.91540855E+03,
                       3.62439976E+00]),
                NASA([979.37, 5000.00],
                     [ 3.55670229E+00,  1.10625819E-02, -4.17009559E-06,
                       7.85564219E-10, -5.70042086E-14,  4.32042473E+03,
                       2.17665377E+00])))

species(name=u'C4H8-1(3)',
        atoms='H:8 C:4',
        thermo=(NASA([100.00, 1007.28],
                     [ 2.58772978E+00,  2.32777883E-02,  1.93412653E-05,
                      -3.55496729E-08,  1.36906178E-11, -1.91872929E+03,
                       1.45750592E+01]),
                NASA([1007.28, 5000.00],
                     [ 7.20516863E+00,  2.36361619E-02, -9.03150325E-06,
                       1.65392736E-09, -1.16019318E-13, -3.79733809E+03,
                      -1.24426086E+01])))

species(name=u'C4H8-2(4)',
        atoms='H:8 C:4',
        thermo=(NASA([100.00, 1157.78],
                     [ 2.51999305E+00,  2.76811707E-02,  9.44135366E-07,
                      -1.25013222E-08,  4.67160311E-12, -3.34374810E+03,
                       1.30195268E+01]),
                NASA([1157.78, 5000.00],
                     [ 6.04218222E+00,  2.60073554E-02, -1.04844041E-05,
                       1.90882450E-09, -1.30601743E-13, -4.86273126E+03,
                      -7.52672501E+00])))

species(name=u'C4H6(7)',
        atoms='H:6 C:4',
        thermo=(NASA([100.00, 946.05],
                     [ 2.80594317E+00,  1.02590609E-02,  6.17237648E-05,
                      -9.01611778E-08,  3.59103084E-11,  1.16584993E+04,
                       1.20623208E+01]),
                NASA([946.05, 5000.00],
                     [ 1.24695345E+01,  1.00551088E-02, -2.41190446E-06,
                       4.57038145E-10, -3.93127871E-14,  8.01071120E+03,
                      -4.36383840E+01])))

species(name=u'H2(68)',
        atoms='H:2',
        thermo=(NASA([100.00, 1959.08],
                     [ 3.43536411E+00,  2.12710383E-04, -2.78625110E-07,
                       3.40267219E-10, -7.76032129E-14, -1.03135984E+03,
                      -3.90841731E+00]),
                NASA([1959.08, 5000.00],
                     [ 2.78816619E+00,  5.87640475E-04,  1.59010635E-07,
                      -5.52739465E-11,  4.34311304E-15, -5.96144481E+02,
                       1.12730527E-01])))

species(name=u'C6H8(111)',
        atoms='H:8 C:6',
        thermo=(NASA([100.00, 972.94],
                     [ 1.82685810E+00,  3.47046669E-02,  2.41069029E-05,
                      -5.44846391E-08,  2.29388162E-11,  1.99100662E+04,
                       1.81393407E+01]),
                NASA([972.94, 5000.00],
                     [ 1.21686297E+01,  2.40472622E-02, -8.58150888E-06,
                       1.57033807E-09, -1.12795147E-13,  1.63897076E+04,
                      -3.92195705E+01])))

species(name=u'C8H10(114)',
        atoms='H:10 C:8',
        thermo=(NASA([100.00, 1006.90],
                     [ 9.59131410E-01,  5.26048945E-02,  1.05131904E-05,
                      -4.60826233E-08,  1.99639714E-11,  2.84660797E+04,
                       2.42923647E+01]),
                NASA([1006.90, 5000.00],
                     [ 1.34169916E+01,  3.60528707E-02, -1.38973033E-05,
                       2.56765026E-09, -1.81634220E-13,  2.42876154E+04,
                      -4.41865708E+01])))

species(name=u'S(192)',
        atoms='H:16 C:12',
        thermo=(NASA([100.00, 980.77],
                     [-2.21845767E+00,  1.15202314E-01, -4.46058694E-05,
                      -2.89291868E-08,  2.08193099E-11,  3.97133228E+04,
                       4.48687956E+01]),
                NASA([980.77, 5000.00],
                     [ 2.59409239E+01,  4.89148037E-02, -1.74910308E-05,
                       3.12129858E-09, -2.18247123E-13,  3.18543053E+04,
                      -1.02343337E+02])))

species(name=u'S(203)',
        atoms='H:16 C:12',
        thermo=(NASA([100.00, 989.30],
                     [-1.49883886E+00,  8.97246983E-02,  3.13672885E-05,
                      -1.05842642E-07,  4.65441283E-11,  2.08342711E+04,
                       3.86329531E+01]),
                NASA([989.30, 5000.00],
                     [ 2.71236610E+01,  4.82438837E-02, -1.83141927E-05,
                       3.49867411E-09, -2.57485246E-13,  1.15376658E+04,
                      -1.17509419E+02])))

species(name=u'S(263)',
        atoms='H:15 C:12',
        thermo=(NASA([100.00, 994.95],
                     [-9.10462824E-01,  7.23058358E-02,  7.86556012E-05,
                      -1.50121989E-07,  6.04743286E-11,  3.34535270E+04,
                       3.72739813E+01]),
                NASA([994.95, 5000.00],
                     [ 2.59406530E+01,  5.12030798E-02, -2.04597927E-05,
                       4.01928872E-09, -2.99925908E-13,  2.38117854E+04,
                      -1.13733365E+02])))

species(name=u'S(308)',
        atoms='H:16 C:12',
        thermo=(NASA([100.00, 1011.71],
                     [-1.20303506E+00,  8.13255872E-02,  5.51391840E-05,
                      -1.24057057E-07,  5.05121932E-11,  1.92626564E+04,
                       3.67681766E+01]),
                NASA([1011.71, 5000.00],
                     [ 2.55049343E+01,  5.47778880E-02, -2.26996142E-05,
                       4.46368647E-09, -3.29899441E-13,  9.81303490E+03,
                      -1.12386567E+02])))

species(name=u'C8H10(398)',
        atoms='H:10 C:8',
        thermo=(NASA([100.00, 977.36],
                     [ 1.20168696E+00,  3.27278718E-02,  9.65425839E-05,
                      -1.46970729E-07,  5.73026626E-11,  3.66668196E+04,
                       1.86381615E+01]),
                NASA([977.36, 5000.00],
                     [ 1.91456856E+01,  3.13146468E-02, -1.18303543E-05,
                       2.35393208E-09, -1.80724121E-13,  2.97192533E+04,
                      -8.51189412E+01])))

species(name=u'S(504)',
        atoms='H:15 C:12',
        thermo=(NASA([100.00, 970.90],
                     [-1.71524056E+00,  9.95436438E-02, -4.74497375E-06,
                      -7.04371857E-08,  3.56203157E-11,  3.34415606E+04,
                       3.83478399E+01]),
                NASA([970.90, 5000.00],
                     [ 2.67412339E+01,  4.44001680E-02, -1.54834531E-05,
                       2.80859048E-09, -2.01628794E-13,  2.49892500E+04,
                      -1.13169591E+02])))

species(name=u'X(1)',
        atoms='X:1',
        thermo=(NASA([100.00, 1554.81],
                     [ 7.10134880E-03, -4.25615041E-05,  8.98521156E-08,
                      -7.80182565E-11,  2.32462166E-14, -8.76099414E-01,
                      -3.11209498E-02]),
                NASA([1554.81, 5000.00],
                     [ 1.60301287E-01, -2.52237396E-04,  1.14182282E-07,
                      -1.21473809E-11,  3.85806589E-16, -7.08108147E+01,
                      -9.09535600E-01])))

species(name=u'HX(5)',
        atoms='H:1 X:1',
        thermo=(NASA([100.00, 952.91],
                     [-3.80957846E-01,  5.47219393E-03,  2.60946928E-06,
                      -9.65008412E-09,  4.63967474E-12, -3.62029075E+03,
                       1.01722845E+00]),
                NASA([952.91, 5000.00],
                     [ 2.80337105E+00, -5.41002993E-04,  4.99482316E-07,
                      -7.54902555E-11,  3.06721398E-15, -4.56102934E+03,
                      -1.59435356E+01])))

species(name=u'C2H3X(37)',
        atoms='H:3 C:2 X:1',
        thermo=(NASA([100.00, 928.60],
                     [ 3.83104022E+00, -8.76542826E-03,  6.98017027E-05,
                      -8.68052566E-08,  3.33256145E-11,  1.24795129E+04,
                      -1.81156365E+01]),
                NASA([928.60, 5000.00],
                     [ 8.78015372E+00,  1.92565992E-03,  8.25424482E-07,
                      -1.63654020E-10,  5.70926320E-15,  1.01802749E+04,
                      -4.90566656E+01])))

species(name=u'C4H5X(80)',
        atoms='H:5 C:4 X:1',
        thermo=(NASA([100.00, 936.52],
                     [ 2.68471814E+00,  1.36244384E-02,  5.32592262E-05,
                      -8.32913017E-08,  3.41499632E-11,  1.45727486E+04,
                      -1.06510519E+01]),
                NASA([936.52, 5000.00],
                     [ 1.29012238E+01,  8.96922349E-03, -1.71920361E-06,
                       2.89745198E-10, -2.58686934E-14,  1.09497108E+04,
                      -6.83963240E+01])))

species(name=u'C4H5X(81)',
        atoms='H:5 C:4 X:1',
        thermo=(NASA([100.00, 928.62],
                     [ 2.64239936E+00,  8.31017311E-03,  8.12180670E-05,
                      -1.21403473E-07,  4.98652517E-11,  1.97556542E+04,
                      -1.03935602E+01]),
                NASA([928.62, 5000.00],
                     [ 1.69488231E+01,  2.00857887E-03,  2.03445917E-06,
                      -4.02602194E-10,  1.85354193E-14,  1.47132543E+04,
                      -9.11978215E+01])))

species(name=u'C6H7X(132)',
        atoms='H:7 C:6 X:1',
        thermo=(NASA([100.00, 939.13],
                     [ 1.23965693E+00,  4.15301047E-02,  2.87287519E-05,
                      -7.68482840E-08,  3.51730065E-11,  2.00393541E+04,
                      -4.03266394E+00]),
                NASA([939.13, 5000.00],
                     [ 1.93726548E+01,  1.27698139E-02, -2.75724475E-06,
                       4.63823955E-10, -3.86930880E-14,  1.44959522E+04,
                      -1.01755661E+02])))

species(name=u'SX(324)',
        atoms='H:15 C:12 X:1',
        thermo=(NASA([100.00, 987.58],
                     [-9.53713925E-01,  6.94572247E-02,  9.89936370E-05,
                      -1.75787432E-07,  7.03663139E-11,  2.37217886E+04,
                       1.65077313E+01]),
                NASA([987.58, 5000.00],
                     [ 2.75831421E+01,  5.08327281E-02, -1.99851684E-05,
                       3.94202632E-09, -2.96890295E-13,  1.33570585E+04,
                      -1.44748006E+02])))

species(name=u'SX(325)',
        atoms='H:15 C:12 X:1',
        thermo=(NASA([100.00, 979.07],
                     [-1.33394374E+00,  8.15321511E-02,  6.10816588E-05,
                      -1.40546765E-07,  5.96442085E-11,  2.77657827E+04,
                       1.53200353E+01]),
                NASA([979.07, 5000.00],
                     [ 2.87998835E+01,  4.54042518E-02, -1.68329162E-05,
                       3.24882631E-09, -2.43579235E-13,  1.76960854E+04,
                      -1.50711803E+02])))

species(name=u'SX(327)',
        atoms='H:15 C:12 X:1',
        thermo=(NASA([100.00, 975.89],
                     [-1.51407147E+00,  8.61130325E-02,  4.96934627E-05,
                      -1.31251591E-07,  5.71173975E-11,  2.74628669E+04,
                       1.54839709E+01]),
                NASA([975.89, 5000.00],
                     [ 2.97267739E+01,  4.33704831E-02, -1.57322822E-05,
                       3.01848761E-09, -2.26506458E-13,  1.73031315E+04,
                      -1.55285446E+02])))

species(name=u'SX(328)',
        atoms='H:15 C:12 X:1',
        thermo=(NASA([100.00, 975.89],
                     [-1.51407147E+00,  8.61130325E-02,  4.96934627E-05,
                      -1.31251591E-07,  5.71173975E-11,  2.74628669E+04,
                       1.54839709E+01]),
                NASA([975.89, 5000.00],
                     [ 2.97267739E+01,  4.33704831E-02, -1.57322822E-05,
                       3.01848761E-09, -2.26506458E-13,  1.73031315E+04,
                      -1.55285446E+02])))

species(name=u'SX(329)',
        atoms='H:15 C:12 X:1',
        thermo=(NASA([100.00, 970.39],
                     [-1.56542833E+00,  8.81382486E-02,  4.50722780E-05,
                      -1.27191934E-07,  5.61037210E-11,  2.27918702E+04,
                       1.47908777E+01]),
                NASA([970.39, 5000.00],
                     [ 2.93688867E+01,  4.39675865E-02, -1.54780766E-05,
                       2.91278457E-09, -2.16636343E-13,  1.28642125E+04,
                      -1.53738128E+02])))

species(name=u'SX(331)',
        atoms='H:15 C:12 X:1',
        thermo=(NASA([100.00, 970.72],
                     [-1.55418828E+00,  8.50307808E-02,  5.78315895E-05,
                      -1.43136005E-07,  6.21616299E-11,  2.85792293E+04,
                       1.55572199E+01]),
                NASA([970.72, 5000.00],
                     [ 3.11251361E+01,  4.10895768E-02, -1.44500776E-05,
                       2.77758605E-09, -2.10875624E-13,  1.79604814E+04,
                      -1.63146273E+02])))

species(name=u'SX(472)',
        atoms='H:15 C:12 X:1',
        thermo=(NASA([100.00, 964.55],
                     [-1.75663046E+00,  9.66637308E-02,  1.57517334E-05,
                      -9.63900725E-08,  4.56756826E-11,  2.37097477E+04,
                       1.75754826E+01]),
                NASA([964.55, 5000.00],
                     [ 2.84207995E+01,  4.39700434E-02, -1.49756932E-05,
                       2.72372936E-09, -1.97977080E-13,  1.45178871E+04,
                      -1.44394968E+02])))

species(name=u'SX(473)',
        atoms='H:15 C:12 X:1',
        thermo=(NASA([100.00, 977.07],
                     [-1.29327290E+00,  8.66756616E-02,  3.43327954E-05,
                      -1.07199136E-07,  4.72015688E-11,  2.71477989E+04,
                       1.53278090E+01]),
                NASA([977.07, 5000.00],
                     [ 2.53349806E+01,  4.91681128E-02, -1.78612793E-05,
                       3.31545729E-09, -2.40571113E-13,  1.85311191E+04,
                      -1.29986732E+02])))

species(name=u'SX(526)',
        atoms='H:15 C:12 X:1',
        thermo=(NASA([100.00, 983.66],
                     [-7.54706495E-01,  6.29303369E-02,  1.18134858E-04,
                      -1.95882731E-07,  7.75313256E-11,  2.34825371E+04,
                       2.13272429E+01]),
                NASA([983.66, 5000.00],
                     [ 2.77155316E+01,  5.01708379E-02, -1.94957740E-05,
                       3.86087363E-09, -2.92856366E-13,  1.28978592E+04,
                      -1.40888537E+02])))

species(name=u'SX(530)',
        atoms='H:15 C:12 X:1',
        thermo=(NASA([100.00, 987.58],
                     [-9.53713925E-01,  6.94572247E-02,  9.89936370E-05,
                      -1.75787432E-07,  7.03663139E-11,  2.37217886E+04,
                       1.65077313E+01]),
                NASA([987.58, 5000.00],
                     [ 2.75831421E+01,  5.08327281E-02, -1.99851684E-05,
                       3.94202632E-09, -2.96890295E-13,  1.33570585E+04,
                      -1.44748006E+02])))

species(name=u'SX(548)',
        atoms='H:15 C:12 X:1',
        thermo=(NASA([100.00, 995.86],
                     [-1.21928871E+00,  7.77426590E-02,  7.32774880E-05,
                      -1.49078689E-07,  6.08495282E-11,  2.58912850E+04,
                       1.36218378E+01]),
                NASA([995.86, 5000.00],
                     [ 2.80245364E+01,  5.00393685E-02, -2.01925940E-05,
                       4.00069614E-09, -3.00316386E-13,  1.56159217E+04,
                      -1.49688018E+02])))

species(name=u'SX(641)',
        atoms='H:15 C:12 X:1',
        thermo=(NASA([100.00, 914.36],
                     [-1.41940378E+00,  4.71150570E-02,  2.36204839E-04,
                      -3.88750893E-07,  1.66984685E-10,  2.59792415E+04,
                       1.71130654E+01]),
                NASA([914.36, 5000.00],
                     [ 5.35605163E+01, -5.77207733E-03,  1.51585716E-05,
                      -3.15924089E-09,  1.96573206E-13,  8.08151496E+03,
                      -2.86101250E+02])))

#-------------------------------------------------------------------------------
# Reaction data
#-------------------------------------------------------------------------------
#  Reaction index: Chemkin #1; RMG #345
#  Template reaction: 1,4_Linear_birad_scission
#  Flux pairs: S(192), C6H8(111); S(192), C6H8(111);
#  Exact match found for rate rule [RJJ]
#  Euclidian distance = 0
#  family: 1,4_Linear_birad_scission
#  Ea raised from 0.0 to 1.4 kJ/mol to match endothermicity of reaction.

# Reaction 1
reaction('S(192) <=> C6H8(111) + C6H8(111)', [5.000000e+12, 0.0, 0.338],
         id='gas-1')
#  Reaction index: Chemkin #2; RMG #356
#  Template reaction: Diels_alder_addition
#  Flux pairs: C6H8(111), S(203); C6H8(111), S(203);
#  Estimated using template [diene_unsub_unsub_out;diene_in;ene] for rate rule [diene_unsub_unsub_out;diene_in_HDe;ene_De2_2H]
#  Euclidian distance = 2.2360679775
#  Multiplied by reaction path degeneracy 2.0
#  family: Diels_alder_addition

# Reaction 2
reaction('C6H8(111) + C6H8(111) <=> S(203)', [3.076471e+08, 0.441, 24.113],
         options='duplicate',
         id='gas-2')
#  Reaction index: Chemkin #3; RMG #359
#  Template reaction: Diels_alder_addition
#  Flux pairs: C6H8(111), S(203); C6H8(111), S(203);
#  Estimated using template [diene_unsub_unsub_out;diene_in;ene] for rate rule [diene_unsub_unsub_out;diene_in_DeH;ene_2H_De2]
#  Euclidian distance = 2.2360679775
#  family: Diels_alder_addition

# Reaction 3
reaction('C6H8(111) + C6H8(111) <=> S(203)', [1.538235e+08, 0.441, 24.113],
         options='duplicate',
         id='gas-3')
#  Reaction index: Chemkin #4; RMG #407
#  Template reaction: Birad_recombination
#  Flux pairs: S(192), S(203);
#  Estimated using template [R6_SSSDS;C_rad_out_single;Cpri_rad_out_2H] for rate rule [R6_SSSDS;C_rad_out_TwoDe;Cpri_rad_out_2H]
#  Euclidian distance = 2.0
#  Multiplied by reaction path degeneracy 4.0
#  family: Birad_recombination

# Reaction 4
reaction('S(192) <=> S(203)', [8.000000e+12, 0.0, 1.8],
         id='gas-4')
#  Reaction index: Chemkin #5; RMG #501
#  Template reaction: Intra_ene_reaction
#  Flux pairs: S(203), S(308);
#  Estimated using template [1_3_pentadiene;CH2(C)_1;unsaturated_end] for rate rule [1_3_pentadiene;CH2(C)_1;CdH2_2]
#  Euclidian distance = 1.0
#  Multiplied by reaction path degeneracy 2.0
#  family: Intra_ene_reaction

# Reaction 5
reaction('S(203) <=> S(308)', [9.660000e+08, 1.162, 44.283],
         id='gas-5')
#  Reaction index: Chemkin #6; RMG #1477
#  Template reaction: H_Abstraction
#  Flux pairs: S(263), S(308); S(203), S(263);
#  Estimated using an average for rate rule [C/H2/CdCs;C_rad/H2/Cd\H_Cd\H2]
#  Euclidian distance = 0
#  Multiplied by reaction path degeneracy 2.0
#  family: H_Abstraction

# Reaction 6
reaction('S(263) + S(203) <=> S(263) + S(308)', [9.040000e-03, 4.34, 11.2],
         id='gas-6')
#  Reaction index: Chemkin #7; RMG #819
#  Template reaction: 1,4_Cyclic_birad_scission
#  Flux pairs: C8H10(398), C8H10(114);
#  Estimated using template [RJJ] for rate rule [R6JJ]
#  Euclidian distance = 1.0
#  family: 1,4_Cyclic_birad_scission

# Reaction 7
reaction('C8H10(398) <=> C8H10(114)', [1.000000e+13, 0.0, 0.0],
         id='gas-7')
#  Reaction index: Chemkin #8; RMG #1098
#  Template reaction: 1,2_shiftC
#  Flux pairs: S(263), S(504);
#  Estimated using template [cCsCJ;CsJ-(CdCdCd)H;C] for rate rule [cCs(-R!HR!H)CJ;CsJ-(CdCdCd)H;C]
#  Euclidian distance = 1.0
#  family: 1,2_shiftC

# Reaction 8
reaction('S(263) <=> S(504)', [4.745000e+09, 1.06, 49.6],
         id='gas-8')
#  Reaction index: Chemkin #1; RMG #36
#  Template reaction: Surface_Adsorption_Dissociative
#  Flux pairs: C2H4(2), C2H3X(37); C2H4(2), HX(5);
#  Exact match found for rate rule [C-H;VacantSite1;VacantSite2]
#  Euclidian distance = 0
#  Multiplied by reaction path degeneracy 4.0
#  family: Surface_Adsorption_Dissociative

# surface1 Reaction 1
surface_reaction('C2H4(2) + X(1) + X(1) <=> HX(5) + C2H3X(37)', stick(1.240000e-04, 0.0, 8.015),
                 id='surface1-1')
#  Reaction index: Chemkin #2; RMG #104
#  Template reaction: Surface_Adsorption_Dissociative
#  Flux pairs: C4H6(7), C2H3X(37); C4H6(7), C2H3X(37);
#  Exact match found for rate rule [C-C;VacantSite1;VacantSite2]
#  Euclidian distance = 0
#  family: Surface_Adsorption_Dissociative

# surface1 Reaction 2
surface_reaction('X(1) + X(1) + C4H6(7) <=> C2H3X(37) + C2H3X(37)', stick(6.595000e-04, 0.0, 27.922),
                 id='surface1-2')
#  Reaction index: Chemkin #3; RMG #96
#  Template reaction: Surface_Adsorption_Dissociative
#  Flux pairs: H2(68), HX(5); H2(68), HX(5);
#  Exact match found for rate rule [H-H;VacantSite1;VacantSite2]
#  Euclidian distance = 0
#  family: Surface_Adsorption_Dissociative

# surface1 Reaction 3
surface_reaction('X(1) + X(1) + H2(68) <=> HX(5) + HX(5)', stick(3.200000e-02, 0.0, 0.0),
                 id='surface1-3')
#  Reaction index: Chemkin #4; RMG #114
#  Template reaction: Surface_Adsorption_Dissociative
#  Flux pairs: C4H6(7), C4H5X(80); C4H6(7), HX(5);
#  Exact match found for rate rule [C-H;VacantSite1;VacantSite2]
#  Euclidian distance = 0
#  Multiplied by reaction path degeneracy 2.0
#  family: Surface_Adsorption_Dissociative

# surface1 Reaction 4
surface_reaction('X(1) + X(1) + C4H6(7) <=> HX(5) + C4H5X(80)', stick(6.200000e-05, 0.0, 6.4),
                 id='surface1-4')
#  Reaction index: Chemkin #5; RMG #186
#  Template reaction: Surface_Adsorption_Dissociative
#  Flux pairs: C6H8(111), C4H5X(80); C6H8(111), C2H3X(37);
#  Exact match found for rate rule [C-C;VacantSite1;VacantSite2]
#  Euclidian distance = 0
#  Multiplied by reaction path degeneracy 2.0
#  family: Surface_Adsorption_Dissociative

# surface1 Reaction 5
surface_reaction('X(1) + X(1) + C6H8(111) <=> C2H3X(37) + C4H5X(80)', stick(1.319000e-03, 0.0, 15.66),
                 id='surface1-5')
#  Reaction index: Chemkin #6; RMG #115
#  Template reaction: Surface_Adsorption_Dissociative
#  Flux pairs: C4H6(7), C4H5X(81); C4H6(7), HX(5);
#  Exact match found for rate rule [C-H;VacantSite1;VacantSite2]
#  Euclidian distance = 0
#  Multiplied by reaction path degeneracy 4.0
#  family: Surface_Adsorption_Dissociative

# surface1 Reaction 6
surface_reaction('X(1) + X(1) + C4H6(7) <=> HX(5) + C4H5X(81)', stick(1.240000e-04, 0.0, 9.13),
                 id='surface1-6')
#  Reaction index: Chemkin #7; RMG #179
#  Template reaction: Surface_Migration
#  Flux pairs: C4H5X(80), C4H5X(81);
#  Exact match found for rate rule [*C]
#  Euclidian distance = 0
#  Multiplied by reaction path degeneracy 2.0
#  family: Surface_Migration

# surface1 Reaction 7
surface_reaction('C4H5X(80) <=> C4H5X(81)', [1.467200e+13, 0.0, 14.18],
                 id='surface1-7')
#  Reaction index: Chemkin #8; RMG #208
#  Template reaction: Surface_Adsorption_Dissociative
#  Flux pairs: C6H8(111), C6H7X(132); C6H8(111), HX(5);
#  Exact match found for rate rule [C-H;VacantSite1;VacantSite2]
#  Euclidian distance = 0
#  Multiplied by reaction path degeneracy 2.0
#  family: Surface_Adsorption_Dissociative

# surface1 Reaction 8
surface_reaction('X(1) + X(1) + C6H8(111) <=> HX(5) + C6H7X(132)', stick(6.200000e-05, 0.0, 6.4),
                 id='surface1-8')
#  Reaction index: Chemkin #9; RMG #189
#  Template reaction: Surface_Adsorption_Dissociative
#  Flux pairs: C8H10(114), C4H5X(80); C8H10(114), C4H5X(80);
#  Exact match found for rate rule [C-C;VacantSite1;VacantSite2]
#  Euclidian distance = 0
#  family: Surface_Adsorption_Dissociative

# surface1 Reaction 9
surface_reaction('X(1) + X(1) + C8H10(114) <=> C4H5X(80) + C4H5X(80)', stick(6.595000e-04, 0.0, 9.0),
                 id='surface1-9')
#  Reaction index: Chemkin #10; RMG #780
#  Template reaction: Surface_Adsorption_Dissociative
#  Flux pairs: C8H10(114), C6H7X(132); C8H10(114), C2H3X(37);
#  Exact match found for rate rule [C-C;VacantSite1;VacantSite2]
#  Euclidian distance = 0
#  Multiplied by reaction path degeneracy 2.0
#  family: Surface_Adsorption_Dissociative

# surface1 Reaction 10
surface_reaction('X(1) + X(1) + C8H10(114) <=> C6H7X(132) + C2H3X(37)', stick(1.319000e-03, 0.0, 9.866),
                 id='surface1-10')
#  Reaction index: Chemkin #11; RMG #522
#  Template reaction: Surface_Adsorption_Dissociative
#  Flux pairs: S(203), SX(328); S(203), HX(5);
#  Exact match found for rate rule [C-H;VacantSite1;VacantSite2]
#  Euclidian distance = 0
#  Multiplied by reaction path degeneracy 2.0
#  family: Surface_Adsorption_Dissociative

# surface1 Reaction 11
surface_reaction('X(1) + X(1) + S(203) <=> HX(5) + SX(328)', stick(6.200000e-05, 0.0, 6.4),
                 id='surface1-11')
#  Reaction index: Chemkin #12; RMG #518
#  Template reaction: Surface_Adsorption_Dissociative
#  Flux pairs: S(203), SX(324); S(203), HX(5);
#  Exact match found for rate rule [C-H;VacantSite1;VacantSite2]
#  Euclidian distance = 0
#  Multiplied by reaction path degeneracy 2.0
#  family: Surface_Adsorption_Dissociative

# surface1 Reaction 12
surface_reaction('X(1) + X(1) + S(203) <=> HX(5) + SX(324)', stick(6.200000e-05, 0.0, 6.4),
                 id='surface1-12')
#  Reaction index: Chemkin #13; RMG #1058
#  Template reaction: Surface_Adsorption_Single
#  Flux pairs: S(263), SX(324); X(1), SX(324);
#  Exact match found for rate rule [Adsorbate;VacantSite]
#  Euclidian distance = 0
#  family: Surface_Adsorption_Single

# surface1 Reaction 13
surface_reaction('X(1) + S(263) <=> SX(324)', stick(1.000000e-01, 0.0, 0.0),
                 id='surface1-13')
#  Reaction index: Chemkin #14; RMG #1124
#  Template reaction: Surface_Adsorption_Single
#  Flux pairs: X(1), SX(530); S(263), SX(530);
#  Exact match found for rate rule [Adsorbate;VacantSite]
#  Euclidian distance = 0
#  family: Surface_Adsorption_Single

# surface1 Reaction 14
surface_reaction('X(1) + S(263) <=> SX(530)', stick(1.000000e-01, 0.0, 0.0),
                 id='surface1-14')
#  Reaction index: Chemkin #15; RMG #1120
#  Template reaction: Surface_Adsorption_Single