units(length='cm', time='s', quantity='mol', act_energy='kcal/mol')

ideal_gas(name='gas',
          elements="H D T C Ci O Oi N Ne Ar He Si S Cl X",
          species="""n-heptane   Ar          He          Ne
                     N2          C2H4(2)     C4H8-1(3)   C4H8-2(4)
                     C4H6(7)     C3H6(32)    H2(68)      C6H10(144)
                     C6H10(170)  C8H14(301)  C4H8(328)   CH4(413)
                     C5H10(417)  C5H10(424)  C2H6(428)   C6H12(441)
                     C3H8(444)   C8H14(582)  C8H14(699)  C8H14(769)
                     C7H12(911)  S(1112)     S(1157)     S(1200)
                     S(1652)     S(2016)     S(2450)     S(3402)
                     S(4474)     S(5574)     S(6957)     S(7015)""",
          reactions='gas-*',
          transport='Mix',
          initial_state=state(temperature=300.0, pressure=OneAtm))

ideal_interface(name='surface1',
                elements="H D T C Ci O Oi N Ne Ar He Si S Cl X",
                species="""X(1)        HX(5)       C2H3X(37)   allylX(38)
                          CH3X(39)    C2H5X(40)   C4H7X(41)   C4H7X(42)
                          C4H7X(43)   C4H7X(44)   C3H5X(45)   C4H7X(46)
                          C4H7X(47)   C2H2X(70)   C6H11X(71)  C6H11X(72)
                          C6H11X(73)  C4H5X(80)   C4H5X(81)   C6H9X(98)
                          SX(109)     SX(110)     C6H9X(115)  CH2X(124)
                          C6H9X(136)  C5H7X(138)  C6H9X(171)  C6H9X(172)
                          C6H9X(173)  SX(206)     SX(207)     SX(208)
                          SX(209)     SX(210)     SX(211)     SX(212)
                          C4H7X(287)  SX(291)     C3H5X(322)  C4H6X(323)
                          SX(324)     C4H7X(348)  SX(366)     SX(375)
                          C3H7X(409)  C5H9X(414)  C5H9X(415)  SX(432)
                          C6H9X(446)  C6H9X(475)  C6H9X(476)  C6H9X(477)
                          C5H6X(529)  C6H9X(558)  C6H8X(560)  SX(561)
                          C6H9X(589)  C6H9X(590)  SX(620)     SX(647)
                          C6H9X(674)  C6H9X(675)  SX(677)     C6H9X(711)
                          C6H9X(712)  SX(714)     SX(749)     C6H9X(782)
                          SX(784)     C6H9X(819)  C5H7X(888)  C5H7X(928)
                          C5H7X(966)  SX(1008)    SX(1013)    SX(1014)
                          SX(1018)    SX(1019)    SX(1020)    SX(1021)
                          SX(1180)    SX(1223)    SX(1250)    SX(1284)
                          SX(1337)    SX(1338)    SX(1414)    SX(1415)
                          SX(1428)    SX(1429)    SX(1430)    SX(1431)
                          SX(1498)    SX(1499)    SX(1500)    SX(1501)
                          SX(1631)    SX(1684)    SX(1686)    SX(1724)
                          SX(1796)    SX(1853)    SX(1854)    SX(1855)
                          SX(1856)    SX(1858)    SX(1993)    SX(1994)
                          SX(2052)    SX(2346)    SX(2375)    SX(2376)
                          SX(2377)    SX(2430)    SX(2432)    SX(2434)
                          SX(2516)    SX(2517)    SX(2521)    SX(2522)
                          SX(2570)    SX(2571)    SX(2600)    SX(2601)
                          SX(2652)    SX(2679)    SX(2797)    SX(2798)
                          SX(2799)    SX(2800)    SX(2801)    SX(2802)
                          SX(3005)    SX(3155)    SX(3396)    SX(3596)
                          SX(3722)    SX(3994)    SX(4271)    SX(4272)
                          SX(4273)    SX(4274)    SX(4458)    SX(4483)
                          SX(4513)    SX(4514)    SX(4555)    SX(4586)
                          SX(4587)    SX(4588)    SX(4618)    SX(4619)
                          SX(4718)    SX(4746)    SX(4771)    SX(4772)
                          SX(4840)    SX(5109)    SX(5166)    SX(5552)
                          SX(5792)    SX(5794)    SX(5881)    SX(6272)
                          SX(6417)    SX(6716)    SX(6745)    SX(6909)
                          SX(6939)    SX(6997)    SX(6999)    SX(7079)
                          SX(7138)    SX(7253)    SX(7566)    SX(7672)
                          SX(7832)    CHX(9188)   SX(9407)    SX(9502)
                          SX(9622)    SX(10607)   SX(10939)   SX(10948)
                          SX(10961)   SX(10962)   SX(10972)   SX(10973)
                          SX(10974)   SX(10999)   SX(11000)   SX(11004)
                          SX(11043)   SX(11083)   SX(11106)   SX(11290)
                          SX(11303)   SX(11304)""",
                site_density=2.72e-09,
                phases="gas",
          reactions='surface1-*',
                initial_state=state(temperature=300.0, pressure=OneAtm))

#-------------------------------------------------------------------------------
# Element data
#-------------------------------------------------------------------------------

element(symbol=u'X', atomic_mass=195.083)
element(symbol=u'Ci', atomic_mass=13.003)
element(symbol=u'D', atomic_mass=2.014)
element(symbol=u'Oi', atomic_mass=18.0)
element(symbol=u'T', atomic_mass=3.016)
#-------------------------------------------------------------------------------
# Species data
#-------------------------------------------------------------------------------

species(name=u'n-heptane',
        atoms='H:16 C:7',
        thermo=(NASA([100.00, 1262.73],
                     [-2.91681405E-03,  7.69373649E-02, -3.48025563E-05,
                       1.86095180E-09,  2.01573617E-12, -2.57829342E+04,
                       3.00312148E+01]),
                NASA([1262.73, 5000.00],
                     [ 1.38377915E+01,  4.85945016E-02, -1.95474548E-05,
                       3.52837178E-09, -2.39064676E-13, -3.05141556E+04,
                      -4.48642836E+01])),
        transport=gas_transport(geom='nonlinear',
                                diam=6.366,
                                well_depth=402.997))

species(name=u'Ar',
        atoms='Ar:1',
        thermo=(NASA([200.00, 1000.00],
                     [ 2.50000000E+00,  0.00000000E+00,  0.00000000E+00,
                       0.00000000E+00,  0.00000000E+00, -7.45375000E+02,
                       4.37967000E+00]),
                NASA([1000.00, 6000.00],
                     [ 2.50000000E+00,  0.00000000E+00,  0.00000000E+00,
                       0.00000000E+00,  0.00000000E+00, -7.45375000E+02,
                       4.37967000E+00])),
        transport=gas_transport(geom='atom',
                                diam=3.33,
                                well_depth=136.5))

species(name=u'He',
        atoms='He:1',
        thermo=(NASA([200.00, 1000.00],
                     [ 2.50000000E+00,  0.00000000E+00,  0.00000000E+00,
                       0.00000000E+00,  0.00000000E+00, -7.45375000E+02,
                       9.28724000E-01]),
                NASA([1000.00, 6000.00],
                     [ 2.50000000E+00,  0.00000000E+00,  0.00000000E+00,
                       0.00000000E+00,  0.00000000E+00, -7.45375000E+02,
                       9.28724000E-01])),
        transport=gas_transport(geom='atom',
                                diam=2.576,
                                well_depth=10.2))

species(name=u'Ne',
        atoms='Ne:1',
        thermo=(NASA([200.00, 1000.00],
                     [ 2.50000000E+00,  0.00000000E+00,  0.00000000E+00,
                       0.00000000E+00,  0.00000000E+00, -7.45375000E+02,
                       3.35532000E+00]),
                NASA([1000.00, 6000.00],
                     [ 2.50000000E+00,  0.00000000E+00,  0.00000000E+00,
                       0.00000000E+00,  0.00000000E+00, -7.45375000E+02,
                       3.35532000E+00])),
        transport=gas_transport(geom='atom',
                                diam=3.758,
                                well_depth=148.6))

species(name=u'N2',
        atoms='N:2',
        thermo=(NASA([200.00, 1000.00],
                     [ 3.53101000E+00, -1.23661000E-04, -5.02999000E-07,
                       2.43531000E-09, -1.40881000E-12, -1.04698000E+03,
                       2.96747000E+00]),
                NASA([1000.00, 6000.00],
                     [ 2.95258000E+00,  1.39690000E-03, -4.92632000E-07,
                       7.86010000E-11, -4.60755000E-15, -9.23949000E+02,
                       5.87189000E+00])),
        transport=gas_transport(geom='linear',
                                diam=3.621,
                                well_depth=97.53,
                                polar=1.76,
                                rot_relax=4.0))

species(name=u'C2H4(2)',
        atoms='H:4 C:2',
        thermo=(NASA([100.00, 979.36],
                     [ 3.97471606E+00, -4.75844285E-03,  4.16783770E-05,
                      -4.51392516E-08,  1.54224761E-11,  4.91540746E+03,
                       3.62430844E+00]),
                NASA([979.36, 5000.00],
                     [ 3.55660610E+00,  1.10627464E-02, -4.17019079E-06,
                       7.85586770E-10, -5.70060829E-14,  4.32046489E+03,
                       2.17719479E+00])),
        transport=gas_transport(geom='nonlinear',
                                diam=3.971,
                                well_depth=280.8,
                                rot_relax=1.5))

species(name=u'C4H8-1(3)',
        atoms='H:8 C:4',
        thermo=(NASA([100.00, 1007.28],
                     [ 2.58772906E+00,  2.32777969E-02,  1.93412349E-05,
                      -3.55496333E-08,  1.36906009E-11, -1.91872926E+03,
                       1.45750618E+01]),
                NASA([1007.28, 5000.00],
                     [ 7.20517168E+00,  2.36361568E-02, -9.03150028E-06,
                       1.65392666E-09, -1.16019260E-13, -3.79733937E+03,
                      -1.24426257E+01])),
        transport=gas_transport(geom='nonlinear',
                                diam=5.176,
                                well_depth=357.002,
                                rot_relax=1.0))

species(name=u'C4H8-2(4)',
        atoms='H:8 C:4',
        thermo=(NASA([100.00, 1157.79],
                     [ 2.51998327E+00,  2.76812799E-02,  9.43783469E-07,
                      -1.25009101E-08,  4.67144666E-12, -3.34374767E+03,
                       1.30195623E+01]),
                NASA([1157.79, 5000.00],
                     [ 6.04225708E+00,  2.60072350E-02, -1.04843374E-05,
                       1.90880922E-09, -1.30600505E-13, -4.86276511E+03,
                      -7.52715109E+00])),
        transport=gas_transport(geom='nonlinear',
                                diam=5.289,
                                well_depth=359.053))

species(name=u'C4H6(7)',
        atoms='H:6 C:4',
        thermo=(NASA([100.00, 946.05],
                     [ 2.80599310E+00,  1.02584471E-02,  6.17260255E-05,
                      -9.01642687E-08,  3.59116961E-11,  1.16584972E+04,
                       1.20621434E+01]),
                NASA([946.05, 5000.00],
                     [ 1.24693720E+01,  1.00553901E-02, -2.41206872E-06,
                       4.57077303E-10, -3.93160571E-14,  8.01077795E+03,
                      -4.36374720E+01])),
        transport=gas_transport(geom='nonlinear',
                                diam=5.18,
                                well_depth=357.002,
                                rot_relax=1.0))

species(name=u'C3H6(32)',
        atoms='H:6 C:3',
        thermo=(NASA([100.00, 983.75],
                     [ 3.31912102E+00,  8.17958674E-03,  3.34736123E-05,
                      -4.36193684E-08,  1.58213364E-11,  7.49325328E+02,
                       9.54025058E+00]),
                NASA([983.75, 5000.00],
                     [ 5.36755173E+00,  1.70743019E-02, -6.35107626E-06,
                       1.16619529E-09, -8.27620279E-14, -4.87138326E+02,
                      -4.54467529E+00])),
        transport=gas_transport(geom='nonlinear',
                                diam=4.982,
                                well_depth=266.801,
                                rot_relax=1.0))

species(name=u'H2(68)',
        atoms='H:2',
        thermo=(NASA([100.00, 1959.08],
                     [ 3.43536412E+00,  2.12710353E-04, -2.78625043E-07,
                       3.40267167E-10, -7.76031998E-14, -1.03135984E+03,
                      -3.90841732E+00]),
                NASA([1959.08, 5000.00],
                     [ 2.78816583E+00,  5.87640942E-04,  1.59010417E-07,
                      -5.52739026E-11,  4.34310984E-15, -5.96144270E+02,
                       1.12732655E-01])),
        transport=gas_transport(geom='linear',
                                diam=2.833,
                                well_depth=59.7))

species(name=u'C6H10(144)',
        atoms='H:10 C:6',
        thermo=(NASA([100.00, 1020.63],
                     [ 9.97427413E-01,  5.59777045E-02, -2.05880600E-05,
                      -1.17182304E-08,  8.13452041E-12,  6.30749855E+03,
                       2.38941836E+01]),
                NASA([1020.63, 5000.00],
                     [ 1.33828218E+01,  2.83661253E-02, -1.07663110E-05,
                       1.95749020E-09, -1.36589418E-13,  2.68926840E+03,
                      -4.14511818E+01])),
        transport=gas_transport(geom='nonlinear',
                                diam=5.673,
                                well_depth=388.08))

species(name=u'C6H10(170)',
        atoms='H:10 C:6',
        thermo=(NASA([100.00, 972.85],
                     [ 1.89244481E+00,  2.85669745E-02,  5.75234916E-05,
                      -9.12214688E-08,  3.58039628E-11,  1.00464014E+04,
                       2.05342237E+01]),
                NASA([972.85, 5000.00],
                     [ 1.27401301E+01,  2.82094400E-02, -1.01441048E-05,
                       1.89804962E-09, -1.39065424E-13,  5.84206841E+03,
                      -4.22616881E+01])),
        transport=gas_transport(geom='nonlinear',
                                diam=6.124,
                                well_depth=421.778))

species(name=u'C8H14(301)',
        atoms='H:14 C:8',
        thermo=(NASA([100.00, 1014.29],
                     [-3.67121846E-01,  8.14233516E-02, -3.11110886E-05,
                      -1.65487757E-08,  1.19185866E-11, -3.02333684E+03,
                       3.00035003E+01]),
                NASA([1014.29, 5000.00],
                     [ 1.79686767E+01,  3.98264136E-02, -1.50150741E-05,
                       2.72531006E-09, -1.90287561E-13, -8.32275149E+03,
                      -6.65042554E+01])),
        transport=gas_transport(geom='nonlinear',
                                diam=6.328,
                                well_depth=425.761))

species(name=u'C4H8(328)',
        atoms='H:8 C:4',
        thermo=(NASA([100.00, 1061.33],
                     [ 2.52504770E+00,  2.64752782E-02,  7.08359238E-06,
                      -2.07731462E-08,  8.00430055E-12, -4.02607130E+03,
                       1.28857274E+01]),
                NASA([1061.33, 5000.00],
                     [ 6.48672669E+00,  2.49943921E-02, -9.83283171E-06,
                       1.79343299E-09, -1.24008235E-13, -5.62452310E+03,
                      -1.00316397E+01])),
        transport=gas_transport(geom='nonlinear',
                                diam=5.238,
                                well_depth=351.146))

species(name=u'CH4(413)',
        atoms='H:4 C:1',
        thermo=(NASA([100.00, 1084.12],
                     [ 4.20541524E+00, -5.35557362E-03,  2.51123265E-05,
                      -2.13762843E-08,  5.97523937E-12, -1.01619433E+04,
                      -9.21279283E-01]),
                NASA([1084.12, 5000.00],
                     [ 9.08265721E-01,  1.14540858E-02, -4.57173828E-06,
                       8.29191671E-10, -5.66314895E-14, -9.71997444E+03,
                       1.39930944E+01])),
        transport=gas_transport(geom='nonlinear',
                                diam=3.746,
                                well_depth=141.4,
                                polar=2.6,
                                rot_relax=13.0))

species(name=u'C5H10(417)',
        atoms='H:10 C:5',
        thermo=(NASA([100.00, 1883.68],
                     [ 2.29195787E+00,  4.21076449E-02, -1.49304794E-05,
                      -1.22102583E-10,  5.99441346E-13, -4.98138150E+03,
                       1.67887076E+01]),
                NASA([1883.68, 5000.00],
                     [ 1.47438472E+01,  2.72460315E-02, -1.23172689E-05,
                       2.21660273E-09, -1.44084857E-13, -1.17269008E+04,
                      -5.66226025E+01])),
        transport=gas_transport(geom='nonlinear',
                                diam=5.533,
                                well_depth=367.083))

species(name=u'C5H10(424)',
        atoms='H:10 C:5',
        thermo=(NASA([100.00, 1065.88],
                     [ 1.83973645E+00,  3.88165649E-02,  3.95415802E-06,
                      -2.48620336E-08,  1.01608534E-11, -6.45875726E+03,
                       1.88194915E+01]),
                NASA([1065.88, 5000.00],
                     [ 8.87931728E+00,  3.15047857E-02, -1.26438740E-05,
                       2.33666558E-09, -1.63001335E-13, -9.04475166E+03,
                      -2.06827600E+01])),
        transport=gas_transport(geom='nonlinear',
                                diam=5.558,
                                well_depth=369.729))

species(name=u'C2H6(428)',
        atoms='H:6 C:2',
        thermo=(NASA([100.00, 1012.42],
                     [ 3.72239291E+00,  1.65083841E-03,  3.44175530E-05,
                      -3.76858229E-08,  1.24450657E-11, -1.15575901E+04,
                       4.68247999E+00]),
                NASA([1012.42, 5000.00],
                     [ 2.82848257E+00,  1.73040568E-02, -6.73334245E-06,
                       1.23742024E-09, -8.65676410E-14, -1.19978080E+04,
                       5.93811707E+00])),
        transport=gas_transport(geom='nonlinear',
                                diam=4.302,
                                well_depth=252.3,
                                rot_relax=1.5))

species(name=u'C6H12(441)',
        atoms='H:12 C:6',
        thermo=(NASA([100.00, 3144.72],
                     [ 1.62486600E+00,  5.81706891E-02, -2.94074668E-05,
                       6.41453677E-09, -5.27511383E-13, -9.95070725E+03,
                       2.05730324E+01]),
                NASA([3144.72, 5000.00],
                     [ 2.63049846E+01,  2.09689465E-02, -8.89163385E-06,
                       1.47783715E-09, -8.83519412E-14, -2.26006402E+04,
                      -1.22203751E+02])),
        transport=gas_transport(geom='nonlinear',
                                diam=5.876,
                                well_depth=387.836))

species(name=u'C3H8(444)',
        atoms='H:8 C:3',
        thermo=(NASA([100.00, 989.99],
                     [ 3.06336167E+00,  1.29214561E-02,  3.47032808E-05,
                      -4.70946154E-08,  1.71384141E-11, -1.43905789E+04,
                       1.07835592E+01]),
                NASA([989.99, 5000.00],
                     [ 5.60440043E+00,  2.19528785E-02, -8.22080610E-06,
                       1.50103993E-09, -1.05635358E-13, -1.58394038E+04,
                      -6.22623300E+00])),
        transport=gas_transport(geom='nonlinear',
                                diam=4.982,
                                well_depth=266.801,
                                rot_relax=1.0))

species(name=u'C8H14(582)',
        atoms='H:14 C:8',
        thermo=(NASA([100.00, 1506.76],
                     [ 5.49675181E-02,  8.43985440E-02, -5.64633487E-05,
                       1.98661295E-08, -2.94599969E-12, -7.77393079E+02,
                       2.95663347E+01]),
                NASA([1506.76, 5000.00],
                     [ 1.39949012E+01,  4.73919655E-02, -1.96226018E-05,
                       3.56583689E-09, -2.41458224E-13, -4.97819756E+03,
                      -4.34005510E+01])),
        transport=gas_transport(geom='nonlinear',
                                diam=6.336,
                                well_depth=426.003))

species(name=u'C8H14(699)',
        atoms='H:14 C:8',
        thermo=(NASA([100.00, 1016.25],
                     [-1.96777655E-01,  7.73097837E-02, -2.22069863E-05,
                      -2.37965356E-08,  1.39851151E-11, -2.84093532E+03,
                       3.12908370E+01]),
                NASA([1016.25, 5000.00],
                     [ 1.72431734E+01,  4.07120734E-02, -1.54898359E-05,
                       2.82734689E-09, -1.98026375E-13, -8.04042418E+03,
                      -6.12697843E+01])),
        transport=gas_transport(geom='nonlinear',
                                diam=6.376,
                                well_depth=433.055))

species(name=u'C8H14(769)',
        atoms='H:14 C:8',
        thermo=(NASA([100.00, 999.32],
                     [-8.27296041E-02,  7.33926821E-02, -9.70961131E-06,
                      -3.77339221E-08,  1.91784792E-11, -2.27794802E+03,
                       3.16114703E+01]),
                NASA([999.32, 5000.00],
                     [ 1.74908493E+01,  3.99675318E-02, -1.49508424E-05,
                       2.72972667E-09, -1.92366979E-13, -7.63361766E+03,
                      -6.23819175E+01])),
        transport=gas_transport(geom='nonlinear',
                                diam=6.384,
                                well_depth=433.303))

species(name=u'C7H12(911)',
        atoms='H:12 C:7',
        thermo=(NASA([100.00, 1783.81],
                     [ 3.90326636E-01,  6.99570089E-02, -4.36036386E-05,
                       1.36989862E-08, -1.75194759E-12,  3.91426270E+03,
                       2.69445029E+01]),
                NASA([1783.81, 5000.00],
                     [ 1.66532980E+01,  3.34889164E-02, -1.29376150E-05,
                       2.23806923E-09, -1.45699842E-13, -1.88772406E+03,
                      -6.09270868E+01])),
        transport=gas_transport(geom='nonlinear',
                                diam=5.997,
                                well_depth=406.016))

species(name=u'S(1112)',
        atoms='H:10 C:5',
        thermo=(NASA([100.00, 1054.71],
                     [ 2.07229480E+00,  3.36844001E-02,  1.40189744E-05,
                      -3.27909735E-08,  1.24687335E-11, -7.08395627E+03,
                       1.85216921E+01]),
                NASA([1054.71, 5000.00],
                     [ 7.69906317E+00,  3.25047725E-02, -1.29748243E-05,
                       2.39429532E-09, -1.67023134E-13, -9.39218314E+03,
                      -1.42396425E+01])),
        transport=gas_transport(geom='nonlinear',
                                diam=5.634,
                                well_depth=380.192))

species(name=u'S(1157)',
        atoms='H:12 C:6',
        thermo=(NASA([100.00, 1917.57],
                     [ 2.29989638E+00,  4.93347109E-02, -1.39908418E-05,
                      -2.79410381E-09,  1.20747058E-12, -1.03230301E+04,
                       1.84311611E+01]),
                NASA([1917.57, 5000.00],
                     [ 1.85703860E+01,  3.37500613E-02, -1.61580314E-05,
                       2.95111967E-09, -1.92346931E-13, -1.99376584E+04,
                      -7.94569206E+01])),
        transport=gas_transport(geom='nonlinear',
                                diam=5.95,
                                well_depth=398.057))

species(name=u'S(1200)',
        atoms='H:12 C:6',
        thermo=(NASA([100.00, 1829.14],
                     [ 7.23497206E-01,  6.40962986E-02, -3.88937857E-05,
                       1.18285810E-08, -1.46479639E-12, -9.55473307E+03,
                       2.34752956E+01]),
                NASA([1829.14, 5000.00],
                     [ 1.55815550E+01,  3.16049972E-02, -1.22495396E-05,
                       2.11773097E-09, -1.37578189E-13, -1.49903266E+04,
                      -5.71784952E+01])),
        transport=gas_transport(geom='nonlinear',
                                diam=5.925,
                                well_depth=395.365))

species(name=u'S(1652)',
        atoms='H:14 C:8',
        thermo=(NASA([100.00, 1061.60],
                     [-2.92612015E-01,  8.13598166E-02, -3.75111047E-05,
                      -5.26746011E-09,  6.79996745E-12, -3.15203310E+03,
                       3.11249298E+01]),
                NASA([1061.60, 5000.00],
                     [ 1.65258017E+01,  4.22160438E-02, -1.64331635E-05,
                       2.99218456E-09, -2.07335165E-13, -8.08806756E+03,
                      -5.74492182E+01])),
        transport=gas_transport(geom='nonlinear',
                                diam=6.376,
                                well_depth=433.055))

species(name=u'S(2016)',
        atoms='H:14 C:7',
        thermo=(NASA([100.00, 1100.44],
                     [ 3.36335259E-01,  6.89089290E-02, -2.24004424E-05,
                      -1.17118400E-08,  7.23987544E-12, -1.21263821E+04,
                       2.91476310E+01]),
                NASA([1100.44, 5000.00],
                     [ 1.33113548E+01,  4.34773230E-02, -1.73567356E-05,
                       3.17806431E-09, -2.19724919E-13, -1.62978316E+04,
                      -4.06697099E+01])),
        transport=gas_transport(geom='nonlinear',
                                diam=6.191,
                                well_depth=405.556))

species(name=u'S(2450)',
        atoms='H:18 C:10',
        thermo=(NASA([100.00, 1158.48],
                     [-1.73167591E+00,  1.09077891E-01, -5.83333229E-05,
                       5.40067358E-09,  3.60301005E-12, -6.92483725E+03,
                       4.08092886E+01]),
                NASA([1158.48, 5000.00],
                     [ 2.11409181E+01,  5.59043600E-02, -2.28913870E-05,
                       4.22976090E-09, -2.93014074E-13, -1.39556654E+04,
                      -8.03749852E+01])),
        transport=gas_transport(geom='nonlinear',
                                diam=7.002,
                                well_depth=463.304))

species(name=u'S(3402)',
        atoms='H:12 C:6',
        thermo=(NASA([100.00, 1083.88],
                     [ 1.36789859E+00,  4.60332170E-02,  1.03872042E-05,
                      -3.61548644E-08,  1.41144370E-11, -9.87388749E+03,
                       2.31436772E+01]),
                NASA([1083.88, 5000.00],
                     [ 1.07762218E+01,  3.82405519E-02, -1.60946813E-05,
                       3.05489613E-09, -2.16276948E-13, -1.34951521E+04,
                      -3.03006182E+01])),
        transport=gas_transport(geom='nonlinear',
                                diam=5.909,
                                well_depth=390.747))

species(name=u'S(4474)',
        atoms='H:18 C:10',
        thermo=(NASA([100.00, 1188.78],
                     [-1.95300717E+00,  1.15046892E-01, -7.59923563E-05,
                       2.20571103E-08, -1.46154816E-12, -1.03349424E+04,
                       4.06077933E+01]),
                NASA([1188.78, 5000.00],
                     [ 2.15567328E+01,  5.36921349E-02, -2.09728234E-05,
                       3.76285270E-09, -2.55770737E-13, -1.71787854E+04,
                      -8.21540077E+01])),
        transport=gas_transport(geom='nonlinear',
                                diam=7.023,
                                well_depth=469.212))

species(name=u'S(5574)',
        atoms='H:16 C:8',
        thermo=(NASA([100.00, 1341.47],
                     [-4.73418499E-01,  8.61093098E-02, -4.72443285E-05,
                       1.02780445E-08, -1.87630621E-13, -1.64298501E+04,
                       3.38800011E+01]),
                NASA([1341.47, 5000.00],
                     [ 1.64444282E+01,  4.83806377E-02, -1.92769805E-05,
                       3.44608549E-09, -2.31422298E-13, -2.21130406E+04,
                      -5.69735818E+01])),
        transport=gas_transport(geom='nonlinear',
                                diam=6.578,
                                well_depth=432.746))

species(name=u'S(6957)',
        atoms='H:18 C:10',
        thermo=(NASA([100.00, 1038.10],
                     [-1.63606842E+00,  1.05948223E-01, -4.48721255E-05,
                      -1.37610845E-08,  1.19267863E-11, -9.13856725E+03,
                       4.08578356E+01]),
                NASA([1038.10, 5000.00],
                     [ 2.12270975E+01,  5.35110627E-02, -2.06291097E-05,
                       3.76028699E-09, -2.61802446E-13, -1.58068004E+04,
                      -7.95529940E+01])),
        transport=gas_transport(geom='nonlinear',
                                diam=7.031,
                                well_depth=469.445))

species(name=u'S(7015)',
        atoms='H:18 C:10',
        thermo=(NASA([100.00, 1091.06],
                     [-1.75140178E+00,  1.10205167E-01, -6.07838718E-05,
                       5.37602654E-09,  4.56468895E-12, -9.27267051E+03,
                       3.99141768E+01]),
                NASA([1091.06, 5000.00],
                     [ 2.07353004E+01,  5.46510751E-02, -2.13704545E-05,
                       3.87875579E-09, -2.67347996E-13, -1.57797898E+04,
                      -7.78643522E+01])),
        transport=gas_transport(geom='nonlinear',
                                diam=7.031,
                                well_depth=469.445))

species(name=u'X(1)',
        atoms='X:1',
        thermo=(NASA([100.00, 1554.80],
                     [ 7.10139498E-03, -4.25619522E-05,  8.98533016E-08,
                      -7.80193649E-11,  2.32465471E-14, -8.76101712E-01,
                      -3.11211229E-02]),
                NASA([1554.80, 5000.00],
                     [ 1.60299900E-01, -2.52235409E-04,  1.14181275E-07,
                      -1.21471653E-11,  3.85790025E-16, -7.08100885E+01,
                      -9.09527530E-01])))

species(name=u'HX(5)',
        atoms='H:1 X:1',
        thermo=(NASA([100.00, 952.91],
                     [-3.80965452E-01,  5.47228709E-03,  2.60912778E-06,
                      -9.64961980E-09,  4.63946753E-12, -3.62029043E+03,