units(length='cm', time='s', quantity='mol', act_energy='kcal/mol')

ideal_gas(name='gas',
          elements="H D T C Ci O Oi N Ne Ar He Si S Cl X",
          species="""n-heptane   Ar          He          Ne
                     N2          C2H4(2)     C4H8-1(3)   C4H8-2(4)
                     C4H6(7)     C6H8(9)     C3H6(32)    H2(68)
                     S(194)      C8H12(353)  C8H12(586)  S(759)
                     C5H8c(782)  S(801)      C6H10(892)  C8H12(894)
                     S(929)      S(1118)     S(1131)     S(1167)
                     S(1170)     S(1171)     S(1174)     S(1175)
                     C5H8(1205)  CH4(1618)   C4H8(1646)  C2H6(1651)
                     S(2030)     S(2033)     S(2039)     S(2063)
                     S(2076)     S(2139)     S(2272)     S(2825)
                     S(2893)     S(2919)     S(3112)     S(3265)
                     S(3519)     S(3525)     S(3971)     S(6743)
                     S(9692)""",
          reactions='gas-*',
          initial_state=state(temperature=300.0, pressure=OneAtm))

ideal_interface(name='surface1',
                elements="H D T C Ci O Oi N Ne Ar He Si S Cl X",
                species="""X(1)        HX(5)       C2H3X(37)   allylX(38)
                          CH3X(39)    C2H5X(40)   C4H7X(41)   C4H7X(42)
                          C4H7X(43)   C4H7X(44)   C3H5X(45)   C4H7X(46)
                          C4H7X(47)   C4H5X(80)   C4H5X(81)   C6H9X(97)
                          C6H9X(98)   C6H9X(107)  SX(111)     SX(112)
                          C6H9X(115)  SX(120)     SX(121)     C6H7X(142)
                          C6H7X(143)  C6H7X(144)  SX(171)     SX(219)
                          SX(223)     SX(224)     C6H7X(233)  C6H9X(343)
                          C5H7X(346)  SX(410)     C6H9X(411)  SX(412)
                          SX(413)     SX(414)     SX(415)     SX(416)
                          SX(520)     C7H9X(535)  SX(547)     C7H9X(580)
                          C3H5X(634)  C4H7X(635)  SX(636)     C6H9X(637)
                          SX(638)     SX(639)     SX(640)     SX(641)
                          SX(765)     SX(766)     C5H7X(777)  SX(807)
                          SX(808)     SX(835)     SX(836)     SX(839)
                          C6H9X(869)  SX(879)     SX(884)     SX(885)
                          SX(895)     C6H9X(941)  C6H9X(997)  SX(1050)
                          SX(1078)    SX(1083)    SX(1084)    SX(1087)
                          SX(1088)    SX(1125)    SX(1129)    SX(1130)
                          SX(1179)    SX(1425)    SX(1426)    SX(1427)
                          SX(1462)    SX(1463)    SX(1620)    SX(1705)
                          SX(1706)    SX(1952)    SX(1953)    SX(1999)
                          SX(2016)    SX(2047)    SX(2049)    SX(2053)
                          SX(2054)    SX(2088)    SX(2182)    SX(2186)
                          SX(2187)    SX(2206)    SX(2207)    SX(2208)
                          SX(2209)    SX(2221)    SX(2355)    SX(2646)
                          SX(2695)    SX(2698)    SX(2935)    SX(3096)
                          SX(3143)    SX(3145)    SX(3193)    SX(3214)
                          SX(3249)    SX(3250)    SX(3510)    SX(3515)
                          SX(3516)    SX(3531)    SX(3532)    SX(3610)
                          SX(3611)    SX(3644)    SX(3862)    SX(3863)
                          SX(3957)    SX(3960)    SX(3961)    SX(4071)
                          SX(4114)    SX(4115)    SX(4117)    SX(4126)
                          SX(4134)    SX(4217)    SX(4678)    SX(4741)
                          SX(4742)    SX(4744)    SX(5097)    SX(5098)
                          SX(5099)    SX(5100)    SX(5101)    SX(5102)
                          SX(5103)    SX(5104)    SX(5205)    SX(5206)
                          SX(5208)    SX(5209)    SX(5210)    SX(5211)
                          SX(5212)    SX(5213)    SX(5448)    SX(5449)
                          SX(5452)    SX(5510)    SX(5516)    SX(5522)
                          SX(5530)    SX(5633)    SX(5634)    SX(5635)
                          SX(5636)    SX(5637)    SX(5638)    SX(5639)
                          SX(5640)    SX(5732)    SX(5798)    SX(5892)
                          SX(5963)    SX(5964)    SX(5966)    SX(5967)
                          SX(5968)    SX(5969)    SX(5970)    SX(6008)
                          SX(6032)    SX(6054)    SX(6122)    SX(6218)
                          SX(6219)    SX(6222)    SX(6227)    SX(6228)
                          SX(6242)    SX(6251)    SX(6284)    SX(6298)
                          SX(6380)    SX(6381)    SX(6382)    SX(6383)
                          SX(6384)    SX(6385)    SX(6386)    SX(6517)
                          SX(6521)    SX(6526)    SX(6550)    SX(6639)
                          SX(6640)    SX(6644)    SX(6645)    SX(6646)
                          SX(6671)    SX(6709)    SX(6710)    SX(6767)
                          SX(6928)    SX(6929)    SX(6931)    SX(6964)
                          SX(6965)    SX(6970)    SX(6971)    SX(6974)
                          SX(7441)    SX(7442)    SX(7453)    SX(7508)
                          SX(7617)    SX(7922)    SX(7923)    SX(8162)
                          SX(8233)    SX(8234)    SX(8512)    SX(8903)
                          SX(8905)    SX(8908)    SX(8912)    SX(8914)
                          SX(9233)    SX(9307)    SX(9470)    SX(9550)
                          SX(9682)    SX(9697)    SX(9698)    SX(9837)
                          SX(9838)    SX(10203)   SX(10216)   SX(10227)
                          SX(10240)   SX(10262)   SX(10263)   SX(10275)
                          SX(10326)   SX(10369)   SX(10386)   SX(10388)
                          SX(10440)   SX(10442)   SX(10558)   SX(10561)
                          SX(10572)   SX(10575)   SX(10738)   SX(10740)
                          SX(10743)   SX(10747)   SX(10749)""",
                site_density=2.72e-09,
                phases="gas",
          reactions='surface1-*',
                initial_state=state(temperature=300.0, pressure=OneAtm))

#-------------------------------------------------------------------------------
# Element data
#-------------------------------------------------------------------------------

element(symbol=u'X', atomic_mass=195.083)
element(symbol=u'Ci', atomic_mass=13.003)
element(symbol=u'D', atomic_mass=2.014)
element(symbol=u'Oi', atomic_mass=18.0)
element(symbol=u'T', atomic_mass=3.016)
#-------------------------------------------------------------------------------
# Species data
#-------------------------------------------------------------------------------

species(name=u'n-heptane',
        atoms='H:16 C:7',
        thermo=(NASA([100.00, 1262.73],
                     [-2.91681405E-03,  7.69373649E-02, -3.48025563E-05,
                       1.86095180E-09,  2.01573617E-12, -2.57829342E+04,
                       3.00312148E+01]),
                NASA([1262.73, 5000.00],
                     [ 1.38377915E+01,  4.85945016E-02, -1.95474548E-05,
                       3.52837178E-09, -2.39064676E-13, -3.05141556E+04,
                      -4.48642836E+01])))

species(name=u'Ar',
        atoms='Ar:1',
        thermo=(NASA([200.00, 1000.00],
                     [ 2.50000000E+00,  0.00000000E+00,  0.00000000E+00,
                       0.00000000E+00,  0.00000000E+00, -7.45375000E+02,
                       4.37967000E+00]),
                NASA([1000.00, 6000.00],
                     [ 2.50000000E+00,  0.00000000E+00,  0.00000000E+00,
                       0.00000000E+00,  0.00000000E+00, -7.45375000E+02,
                       4.37967000E+00])))

species(name=u'He',
        atoms='He:1',
        thermo=(NASA([200.00, 1000.00],
                     [ 2.50000000E+00,  0.00000000E+00,  0.00000000E+00,
                       0.00000000E+00,  0.00000000E+00, -7.45375000E+02,
                       9.28724000E-01]),
                NASA([1000.00, 6000.00],
                     [ 2.50000000E+00,  0.00000000E+00,  0.00000000E+00,
                       0.00000000E+00,  0.00000000E+00, -7.45375000E+02,
                       9.28724000E-01])))

species(name=u'Ne',
        atoms='Ne:1',
        thermo=(NASA([200.00, 1000.00],
                     [ 2.50000000E+00,  0.00000000E+00,  0.00000000E+00,
                       0.00000000E+00,  0.00000000E+00, -7.45375000E+02,
                       3.35532000E+00]),
                NASA([1000.00, 6000.00],
                     [ 2.50000000E+00,  0.00000000E+00,  0.00000000E+00,
                       0.00000000E+00,  0.00000000E+00, -7.45375000E+02,
                       3.35532000E+00])))

species(name=u'N2',
        atoms='N:2',
        thermo=(NASA([200.00, 1000.00],
                     [ 3.53101000E+00, -1.23661000E-04, -5.02999000E-07,
                       2.43531000E-09, -1.40881000E-12, -1.04698000E+03,
                       2.96747000E+00]),
                NASA([1000.00, 6000.00],
                     [ 2.95258000E+00,  1.39690000E-03, -4.92632000E-07,
                       7.86010000E-11, -4.60755000E-15, -9.23949000E+02,
                       5.87189000E+00])))

species(name=u'C2H4(2)',
        atoms='H:4 C:2',
        thermo=(NASA([100.00, 979.36],
                     [ 3.97471606E+00, -4.75844285E-03,  4.16783770E-05,
                      -4.51392516E-08,  1.54224761E-11,  4.91540746E+03,
                       3.62430844E+00]),
                NASA([979.36, 5000.00],
                     [ 3.55660610E+00,  1.10627464E-02, -4.17019079E-06,
                       7.85586770E-10, -5.70060829E-14,  4.32046489E+03,
                       2.17719479E+00])))

species(name=u'C4H8-1(3)',
        atoms='H:8 C:4',
        thermo=(NASA([100.00, 1007.28],
                     [ 2.58772906E+00,  2.32777969E-02,  1.93412349E-05,
                      -3.55496333E-08,  1.36906009E-11, -1.91872926E+03,
                       1.45750618E+01]),
                NASA([1007.28, 5000.00],
                     [ 7.20517168E+00,  2.36361568E-02, -9.03150028E-06,
                       1.65392666E-09, -1.16019260E-13, -3.79733937E+03,
                      -1.24426257E+01])))

species(name=u'C4H8-2(4)',
        atoms='H:8 C:4',
        thermo=(NASA([100.00, 1157.79],
                     [ 2.51998327E+00,  2.76812799E-02,  9.43783469E-07,
                      -1.25009101E-08,  4.67144666E-12, -3.34374767E+03,
                       1.30195623E+01]),
                NASA([1157.79, 5000.00],
                     [ 6.04225708E+00,  2.60072350E-02, -1.04843374E-05,
                       1.90880922E-09, -1.30600505E-13, -4.86276511E+03,
                      -7.52715109E+00])))

species(name=u'C4H6(7)',
        atoms='H:6 C:4',
        thermo=(NASA([100.00, 946.05],
                     [ 2.80599310E+00,  1.02584471E-02,  6.17260255E-05,
                      -9.01642687E-08,  3.59116961E-11,  1.16584972E+04,
                       1.20621434E+01]),
                NASA([946.05, 5000.00],
                     [ 1.24693720E+01,  1.00553901E-02, -2.41206872E-06,
                       4.57077303E-10, -3.93160571E-14,  8.01077795E+03,
                      -4.36374720E+01])))

species(name=u'C6H8(9)',
        atoms='H:8 C:6',
        thermo=(NASA([100.00, 941.22],
                     [ 1.38427980E+00,  4.14411503E-02,  1.94287417E-05,
                      -6.16688700E-08,  2.86503633E-11,  1.76317461E+04,
                       1.93257509E+01]),
                NASA([941.22, 5000.00],
                     [ 1.69619680E+01,  1.57221707E-02, -4.10118367E-06,
                       6.95736344E-10, -5.26521484E-14,  1.29061672E+04,
                      -6.44097553E+01])))

species(name=u'C3H6(32)',
        atoms='H:6 C:3',
        thermo=(NASA([100.00, 983.75],
                     [ 3.31912102E+00,  8.17958674E-03,  3.34736123E-05,
                      -4.36193684E-08,  1.58213364E-11,  7.49325328E+02,
                       9.54025058E+00]),
                NASA([983.75, 5000.00],
                     [ 5.36755173E+00,  1.70743019E-02, -6.35107626E-06,
                       1.16619529E-09, -8.27620279E-14, -4.87138326E+02,
                      -4.54467529E+00])))

species(name=u'H2(68)',
        atoms='H:2',
        thermo=(NASA([100.00, 1959.08],
                     [ 3.43536412E+00,  2.12710353E-04, -2.78625043E-07,
                       3.40267167E-10, -7.76031998E-14, -1.03135984E+03,
                      -3.90841732E+00]),
                NASA([1959.08, 5000.00],
                     [ 2.78816583E+00,  5.87640942E-04,  1.59010417E-07,
                      -5.52739026E-11,  4.34310984E-15, -5.96144270E+02,
                       1.12732655E-01])))

species(name=u'S(194)',
        atoms='H:16 C:12',
        thermo=(NASA([100.00, 985.43],
                     [-1.88304682E+00,  1.07042194E-01, -2.70554103E-05,
                      -4.30549514E-08,  2.47781880E-11,  4.00783494E+04,
                       4.74620913E+01]),
                NASA([985.43, 5000.00],
                     [ 2.44922294E+01,  5.06805346E-02, -1.84366585E-05,
                       3.32433721E-09, -2.33631810E-13,  3.24185269E+04,
                      -9.18863874E+01])))

species(name=u'C8H12(353)',
        atoms='H:12 C:8',
        thermo=(NASA([100.00, 1002.94],
                     [ 1.69489980E-02,  7.28189377E-02, -2.16585698E-05,
                      -2.40807783E-08,  1.44597041E-11,  1.38562447E+04,
                       3.07679077E+01]),
                NASA([1002.94, 5000.00],
                     [ 1.77276883E+01,  3.45993801E-02, -1.29781828E-05,
                       2.37500136E-09, -1.67643536E-13,  8.67334638E+03,
                      -6.28559377E+01])))

species(name=u'C8H12(586)',
        atoms='H:12 C:8',
        thermo=(NASA([100.00, 1016.52],
                     [-1.10429280E-01,  7.70814645E-02, -3.47833140E-05,
                      -1.00302869E-08,  9.42640217E-12,  1.21750142E+04,
                       2.97645889E+01]),
                NASA([1016.52, 5000.00],
                     [ 1.75623558E+01,  3.50022757E-02, -1.32158186E-05,
                       2.40320183E-09, -1.68059077E-13,  7.16317806E+03,
                      -6.27651255E+01])))

species(name=u'S(759)',
        atoms='H:14 C:10',
        thermo=(NASA([100.00, 988.70],
                     [-1.28102885E+00,  9.73401935E-02, -3.96908570E-05,
                      -2.28883979E-08,  1.70599250E-11,  2.01333918E+04,
                       3.80613736E+01]),
                NASA([988.70, 5000.00],
                     [ 2.35618068E+01,  3.86218834E-02, -1.40063814E-05,
                       2.54246809E-09, -1.80004061E-13,  1.31784885E+04,
                      -9.18377566E+01])))

species(name=u'C5H8c(782)',
        atoms='H:8 C:5',
        thermo=(NASA([100.00, 1004.86],
                     [ 1.98273955E+00,  3.49998332E-02,  6.98515281E-06,
                      -3.05031334E-08,  1.32246652E-11,  6.96521034E+03,
                       1.60818191E+01]),
                NASA([1004.86, 5000.00],
                     [ 1.01246420E+01,  2.42323877E-02, -9.24886971E-06,
                       1.70115950E-09, -1.20059732E-13,  4.23624320E+03,
                      -2.86745770E+01])))

species(name=u'S(801)',
        atoms='H:14 C:10',
        thermo=(NASA([100.00, 996.17],
                     [-1.40484009E+00,  1.01563983E-01, -5.26982344E-05,
                      -8.95924912E-09,  1.20629221E-11,  1.84520053E+04,
                       3.70450641E+01]),
                NASA([996.17, 5000.00],
                     [ 2.33617794E+01,  3.90818563E-02, -1.42761516E-05,
                       2.57812553E-09, -1.81029820E-13,  1.16835351E+04,
                      -9.15504001E+01])))

species(name=u'C6H10(892)',
        atoms='H:10 C:6',
        thermo=(NASA([100.00, 1036.89],
                     [ 1.50874221E+00,  4.27939676E-02,  1.00407781E-05,
                      -3.76644958E-08,  1.56320088E-11,  7.74480595E+03,
                       2.33493905E+01]),
                NASA([1036.89, 5000.00],
                     [ 1.16601041E+01,  3.10397815E-02, -1.26024374E-05,
                       2.38495409E-09, -1.70150727E-13,  4.16633351E+03,
                      -3.30972272E+01])))

species(name=u'C8H12(894)',
        atoms='H:12 C:8',
        thermo=(NASA([100.00, 1005.34],
                     [ 1.86706594E-01,  6.87128585E-02, -1.27834364E-05,
                      -3.12867866E-08,  1.65065107E-11,  1.40386710E+04,
                       3.13641644E+01]),
                NASA([1005.34, 5000.00],
                     [ 1.70020327E+01,  3.54850644E-02, -1.34528637E-05,
                       2.47700296E-09, -1.75378433E-13,  8.95581482E+03,
                      -5.83136097E+01])))

species(name=u'S(929)',
        atoms='H:18 C:12',
        thermo=(NASA([100.00, 1095.01],
                     [-2.74660311E+00,  1.29765084E-01, -8.38469326E-05,
                       1.76910140E-08,  2.07998997E-12,  1.63622171E+04,
                       4.84763299E+01]),
                NASA([1095.01, 5000.00],
                     [ 2.54000781E+01,  5.57453621E-02, -2.19004326E-05,
                       3.99438837E-09, -2.76438212E-13,  8.47151992E+03,
                      -9.77534119E+01])))

species(name=u'S(1118)',
        atoms='H:12 C:7',
        thermo=(NASA([100.00, 1072.04],
                     [ 7.34369533E-01,  6.01626595E-02, -1.25662011E-05,
                      -1.95620583E-08,  9.83589598E-12,  4.92869796E+03,
                       2.83182178E+01]),
                NASA([1072.04, 5000.00],
                     [ 1.28661532E+01,  3.85784978E-02, -1.55014561E-05,
                       2.86935600E-09, -2.00451385E-13,  9.66694499E+02,
                      -3.74015701E+01])))

species(name=u'S(1131)',
        atoms='H:10 C:7',
        thermo=(NASA([100.00, 960.58],
                     [ 5.40181259E-01,  6.14551349E-02, -1.12030877E-05,
                      -3.44223146E-08,  1.91302393E-11,  1.31395193E+04,
                       2.36489181E+01]),
                NASA([960.58, 5000.00],
                     [ 1.78943603E+01,  2.43013009E-02, -8.01425042E-06,
                       1.41741320E-09, -1.01048701E-13,  8.18561381E+03,
                      -6.78088657E+01])))

species(name=u'S(1167)',
        atoms='H:12 C:7',
        thermo=(NASA([100.00, 1131.99],
                     [ 5.84283501E-01,  6.47608593E-02, -2.67633524E-05,
                      -4.34737531E-09,  4.44182478E-12,  3.09569841E+03,
                       2.80653782E+01]),
                NASA([1131.99, 5000.00],
                     [ 1.29982914E+01,  3.85892124E-02, -1.55301333E-05,
                       2.84554471E-09, -1.96328801E-13, -8.48502352E+02,
                      -3.83715994E+01])))

species(name=u'S(1170)',
        atoms='H:14 C:9',
        thermo=(NASA([100.00, 1063.15],
                     [-8.82236922E-01,  9.34312223E-02, -5.41013563E-05,
                       5.02935019E-09,  4.39043850E-12,  9.36642700E+03,
                       3.45985261E+01]),
                NASA([1063.15, 5000.00],
                     [ 1.91979043E+01,  4.22928962E-02, -1.63922866E-05,
                       2.98082451E-09, -2.06555285E-13,  3.71720416E+03,
                      -6.99943779E+01])))

species(name=u'S(1171)',
        atoms='H:14 C:9',
        thermo=(NASA([100.00, 1474.55],
                     [-3.96703397E-01,  9.26979335E-02, -6.51821885E-05,
                       2.40631754E-08, -3.70865842E-12,  1.17488721E+04,
                       3.39094202E+01]),
                NASA([1474.55, 5000.00],
                     [ 1.59633830E+01,  4.83178968E-02, -2.00360104E-05,
                       3.65182184E-09, -2.48038618E-13,  6.92413657E+03,
                      -5.13719663E+01])))

species(name=u'S(1174)',
        atoms='H:10 C:6',
        thermo=(NASA([100.00, 1020.63],
                     [ 9.97427413E-01,  5.59777045E-02, -2.05880600E-05,
                      -1.17182304E-08,  8.13452041E-12,  6.30749855E+03,
                       2.38941836E+01]),
                NASA([1020.63, 5000.00],
                     [ 1.33828218E+01,  2.83661253E-02, -1.07663110E-05,
                       1.95749020E-09, -1.36589418E-13,  2.68926840E+03,
                      -4.14511818E+01])))

species(name=u'S(1175)',
        atoms='H:10 C:6',
        thermo=(NASA([100.00, 1020.63],
                     [ 9.97427413E-01,  5.59777045E-02, -2.05880600E-05,
                      -1.17182304E-08,  8.13452041E-12,  2.84333919E+03,
                       1.95659973E+01]),
                NASA([1020.63, 5000.00],
                     [ 1.33828218E+01,  2.83661253E-02, -1.07663110E-05,
                       1.95749020E-09, -1.36589418E-13, -7.74890955E+02,
                      -4.57793681E+01])))

species(name=u'C5H8(1205)',
        atoms='H:8 C:5',
        thermo=(NASA([100.00, 1049.25],
                     [ 2.01062155E+00,  3.15407187E-02,  2.07789480E-05,
                      -4.44088985E-08,  1.72419112E-11,  7.01383967E+03,
                       1.65768346E+01]),
                NASA([1049.25, 5000.00],
                     [ 1.14809937E+01,  2.45641673E-02, -1.08867259E-05,
                       2.16707025E-09, -1.59145781E-13,  3.42314914E+03,
                      -3.72078866E+01])))

species(name=u'CH4(1618)',
        atoms='H:4 C:1',
        thermo=(NASA([100.00, 1084.12],
                     [ 4.20541524E+00, -5.35557362E-03,  2.51123265E-05,
                      -2.13762843E-08,  5.97523937E-12, -1.01619433E+04,
                      -9.21279283E-01]),
                NASA([1084.12, 5000.00],
                     [ 9.08265721E-01,  1.14540858E-02, -4.57173828E-06,
                       8.29191671E-10, -5.66314895E-14, -9.71997444E+03,
                       1.39930944E+01])))

species(name=u'C4H8(1646)',
        atoms='H:8 C:4',
        thermo=(NASA([100.00, 1061.33],
                     [ 2.52504770E+00,  2.64752782E-02,  7.08359238E-06,
                      -2.07731462E-08,  8.00430055E-12, -4.02607130E+03,
                       1.28857274E+01]),
                NASA([1061.33, 5000.00],
                     [ 6.48672669E+00,  2.49943921E-02, -9.83283171E-06,
                       1.79343299E-09, -1.24008235E-13, -5.62452310E+03,
                      -1.00316397E+01])))

species(name=u'C2H6(1651)',
        atoms='H:6 C:2',
        thermo=(NASA([100.00, 1012.42],
                     [ 3.72239291E+00,  1.65083841E-03,  3.44175530E-05,
                      -3.76858229E-08,  1.24450657E-11, -1.15575901E+04,
                       4.68247999E+00]),
                NASA([1012.42, 5000.00],
                     [ 2.82848257E+00,  1.73040568E-02, -6.73334245E-06,
                       1.23742024E-09, -8.65676410E-14, -1.19978080E+04,
                       5.93811707E+00])))

species(name=u'S(2030)',
        atoms='H:18 C:12',
        thermo=(NASA([100.00, 1477.97],
                     [-3.19630903E+00,  1.37492248E-01, -1.07533491E-04,
                       4.32751920E-08, -6.98174862E-12,  1.46955257E+04,
                       4.93451940E+01]),
                NASA([1477.97, 5000.00],
                     [ 2.90787822E+01,  5.01436773E-02, -1.88841738E-05,
                       3.28877739E-09, -2.18103615E-13,  5.15506947E+03,
                      -1.18972809E+02])))

species(name=u'S(2033)',
        atoms='H:14 C:9',
        thermo=(NASA([100.00, 1127.97],
                     [-1.06224459E+00,  9.82688301E-02, -6.90079455E-05,
                       2.10351781E-08, -1.31458264E-12,  7.68752408E+03,
                       3.37868611E+01]),
                NASA([1127.97, 5000.00],
                     [ 1.95370073E+01,  4.18802743E-02, -1.61766395E-05,
                       2.90484030E-09, -1.98507333E-13,  1.98059854E+03,
                      -7.27712642E+01])))

species(name=u'S(2039)',
        atoms='H:12 C:7',
        thermo=(NASA([100.00, 1765.44],
                     [ 2.61835273E-01,  7.09654296E-02, -4.51295281E-05,
                       1.45180323E-08, -1.89455826E-12,  1.42372358E+03,
                       2.70943408E+01]),
                NASA([1765.44, 5000.00],
                     [ 1.73436976E+01,  3.22622835E-02, -1.22452290E-05,
                       2.10012569E-09, -1.36070052E-13, -4.60762115E+03,
                      -6.50249422E+01])))

species(name=u'S(2063)',
        atoms='H:16 C:10',
        thermo=(NASA([100.00, 1423.43],
                     [-9.64998750E-01,  1.06621285E-01, -7.62914575E-05,
                       2.89181323E-08, -4.60674413E-12,  8.90797740E+03,
                       3.81904336E+01]),
                NASA([1423.43, 5000.00],
                     [ 1.67121827E+01,  5.69463096E-02, -2.39442437E-05,
                       4.40115288E-09, -3.00767956E-13,  3.87554017E+03,
                      -5.33329903E+01])))

species(name=u'S(2076)',
        atoms='H:12 C:7',
        thermo=(NASA([100.00, 1597.77],
                     [ 6.07449968E-01,  7.06269883E-02, -4.57495732E-05,
                       1.53760740E-08, -2.15609505E-12,  2.06429398E+03,
                       2.53447288E+01]),
                NASA([1597.77, 5000.00],
                     [ 1.34412067E+01,  3.84975028E-02, -1.55858458E-05,
                       2.79019000E-09, -1.86786764E-13, -2.03674428E+03,
                      -4.25846163E+01])))

species(name=u'S(2139)',
        atoms='H:12 C:8',
        thermo=(NASA([100.00, 1018.55],
                     [ 6.01063084E-02,  7.29655393E-02, -2.58705028E-05,
                      -1.72899943E-08,  1.14983085E-11,  1.23574076E+04,
                       3.03580987E+01]),
                NASA([1018.55, 5000.00],
                     [ 1.68364676E+01,  3.58886254E-02, -1.36909925E-05,
                       2.50533844E-09, -1.75806316E-13,  7.44565539E+03,
                      -5.82216573E+01])))

species(name=u'S(2272)',
        atoms='H:16 C:10',
        thermo=(NASA([100.00, 1289.14],
                     [-8.93687957E-01,  1.08666914E-01, -8.19503125E-05,
                       3.37855656E-08, -5.94800249E-12,  7.06551798E+03,
                       3.64479621E+01]),
                NASA([1289.14, 5000.00],
                     [ 1.46119310E+01,  6.05555680E-02, -2.59697615E-05,
                       4.83584916E-09, -3.33869088E-13,  3.06772134E+03,
                      -4.22957851E+01])))

species(name=u'S(2825)',
        atoms='H:12 C:8',
        thermo=(NASA([100.00, 1018.55],
                     [ 6.01063084E-02,  7.29655393E-02, -2.58705028E-05,
                      -1.72899943E-08,  1.14983085E-11,  1.23574076E+04,
                       3.03580987E+01]),
                NASA([1018.55, 5000.00],
                     [ 1.68364676E+01,  3.58886254E-02, -1.36909925E-05,
                       2.50533844E-09, -1.75806316E-13,  7.44565539E+03,
                      -5.82216573E+01])))

species(name=u'S(2893)',
        atoms='H:16 C:10',
        thermo=(NASA([100.00, 1138.69],
                     [-1.69481903E+00,  1.10097565E-01, -7.41550260E-05,
                       2.05582177E-08, -6.65281706E-13,  6.53634594E+03,
                       3.97650424E+01]),
                NASA([1138.69, 5000.00],
                     [ 2.14208416E+01,  4.85617087E-02, -1.89986509E-05,
                       3.43258619E-09, -2.35214495E-13, -2.85786716E+00,
                      -8.03549591E+01])))

species(name=u'S(2919)',
        atoms='H:16 C:10',
        thermo=(NASA([100.00, 1453.18],
                     [-1.86468656E+00,  1.14862349E-01, -8.86053426E-05,
                       3.56213604E-08, -5.79860257E-12,  4.70425404E+03,
                       3.88941742E+01]),
                NASA([1453.18, 5000.00],
                     [ 2.30612638E+01,  4.62511546E-02, -1.77831293E-05,
                       3.13047883E-09, -2.08950654E-13, -2.54007990E+03,
                      -9.06751544E+01])))

species(name=u'S(3112)',
        atoms='H:14 C:9',
        thermo=(NASA([100.00, 1061.03],
                     [-7.05953494E-01,  8.92476594E-02, -4.49538104E-05,
                      -2.53008134E-09,  6.58740302E-12,  9.37244562E+03,
                       3.53274184E+01]),
                NASA([1061.03, 5000.00],
                     [ 1.84448643E+01,  4.32246707E-02, -1.68933500E-05,
                       3.08902389E-09, -2.14802098E-13,  3.83522066E+03,
                      -6.51415480E+01])))

species(name=u'S(3265)',
        atoms='H:14 C:9',
        thermo=(NASA([100.00, 1061.03],
                     [-7.05953494E-01,  8.92476594E-02, -4.49538104E-05,
                      -2.53008134E-09,  6.58740302E-12,  9.37244562E+03,
                       3.53274184E+01]),
                NASA([1061.03, 5000.00],
                     [ 1.84448643E+01,  4.32246707E-02, -1.68933500E-05,
                       3.08902389E-09, -2.14802098E-13,  3.83522066E+03,
                      -6.51415480E+01])))

species(name=u'S(3519)',
        atoms='H:18 C:12',
        thermo=(NASA([100.00, 1085.27],
                     [-2.55995993E+00,  1.25355517E-01, -7.38342977E-05,
                       8.97133831E-09,  4.75400473E-12,  1.65205814E+04,
                       4.98876451E+01]),
                NASA([1085.27, 5000.00],
                     [ 2.46396898E+01,  5.66083134E-02, -2.23575480E-05,
                       4.09704750E-09, -2.84583976E-13,  8.76155834E+03,
                      -9.21079824E+01])))

species(name=u'S(3525)',
        atoms='H:18 C:12',
        thermo=(NASA([100.00, 1149.22],
                     [-2.75441754E+00,  1.30448741E-01, -8.96236870E-05,
                       2.60418136E-08, -1.33906525E-12,  1.46895397E+04,
                       4.91026365E+01]),
                NASA([1149.22, 5000.00],
                     [ 2.51303828E+01,  5.60408250E-02, -2.20654283E-05,
                       3.99960024E-09, -2.74485478E-13,  6.78477350E+03,
                      -9.58107752E+01])))
