units(length='cm', time='s', quantity='mol', act_energy='kcal/mol')

ideal_gas(name='gas',
          elements="H D T C Ci O Oi N Ne Ar He Si S Cl X",
          species="""n-heptane   Ar          He          Ne
                     N2          C2H4(2)     C4H8-1(3)   C4H8-2(4)
                     C4H6(7)     H2(68)      C6H8(111)   C8H10(114)
                     S(192)      S(203)      S(232)      C8H10(266)
                     S(473)      S(566)      S(644)      S(681)
                     S(759)      S(885)      S(1007)     S(1021)
                     S(1047)     S(1144)     S(1148)     S(1329)
                     S(1464)     S(1579)     S(1598)     S(1667)
                     S(1855)     S(2029)     S(2161)     S(2331)
                     S(2442)     S(2789)""",
          reactions='gas-*',
          initial_state=state(temperature=300.0, pressure=OneAtm))

ideal_interface(name='surface1',
                elements="H D T C Ci O Oi N Ne Ar He Si S Cl X",
                species="""X(1)        HX(5)       C2H3X(37)   C4H5X(80)
                          C4H5X(81)   C6H7X(132)  C6H7X(134)  C8H9X(267)
                          C8H9X(269)  SX(698)     SX(701)     SX(702)
                          SX(804)     SX(806)     SX(844)     SX(847)
                          SX(904)     SX(905)     SX(906)     SX(1004)
                          SX(1071)    SX(1073)    SX(1114)    SX(1165)
                          SX(1170)    SX(1232)    SX(1293)    SX(1326)
                          SX(1327)    SX(1397)    SX(1403)    SX(1428)
                          SX(1542)    SX(1543)    SX(1545)    SX(1546)
                          SX(1698)    SX(1701)    SX(1816)    SX(1817)
                          SX(1842)    SX(1931)    SX(1932)    SX(2018)
                          SX(2020)    SX(2021)    SX(2022)    SX(2250)
                          SX(2252)    SX(2254)    SX(2271)    SX(2280)
                          SX(2521)    SX(2624)    SX(2625)    SX(2626)
                          SX(2719)    SX(2724)""",
                site_density=2.72e-09,
                phases="gas",
          reactions='surface1-*',
                initial_state=state(temperature=300.0, pressure=OneAtm))

#-------------------------------------------------------------------------------
# Element data
#-------------------------------------------------------------------------------

element(symbol=u'X', atomic_mass=195.083)
element(symbol=u'Ci', atomic_mass=13.003)
element(symbol=u'D', atomic_mass=2.014)
element(symbol=u'Oi', atomic_mass=18.0)
element(symbol=u'T', atomic_mass=3.016)
#-------------------------------------------------------------------------------
# Species data
#-------------------------------------------------------------------------------

species(name=u'n-heptane',
        atoms='H:16 C:7',
        thermo=(NASA([100.00, 1262.73],
                     [-2.91681405E-03,  7.69373649E-02, -3.48025563E-05,
                       1.86095180E-09,  2.01573617E-12, -2.57829342E+04,
                       3.00312148E+01]),
                NASA([1262.73, 5000.00],
                     [ 1.38377915E+01,  4.85945016E-02, -1.95474548E-05,
                       3.52837178E-09, -2.39064676E-13, -3.05141556E+04,
                      -4.48642836E+01])))

species(name=u'Ar',
        atoms='Ar:1',
        thermo=(NASA([200.00, 1000.00],
                     [ 2.50000000E+00,  0.00000000E+00,  0.00000000E+00,
                       0.00000000E+00,  0.00000000E+00, -7.45375000E+02,
                       4.37967000E+00]),
                NASA([1000.00, 6000.00],
                     [ 2.50000000E+00,  0.00000000E+00,  0.00000000E+00,
                       0.00000000E+00,  0.00000000E+00, -7.45375000E+02,
                       4.37967000E+00])))

species(name=u'He',
        atoms='He:1',
        thermo=(NASA([200.00, 1000.00],
                     [ 2.50000000E+00,  0.00000000E+00,  0.00000000E+00,
                       0.00000000E+00,  0.00000000E+00, -7.45375000E+02,
                       9.28724000E-01]),
                NASA([1000.00, 6000.00],
                     [ 2.50000000E+00,  0.00000000E+00,  0.00000000E+00,
                       0.00000000E+00,  0.00000000E+00, -7.45375000E+02,
                       9.28724000E-01])))

species(name=u'Ne',
        atoms='Ne:1',
        thermo=(NASA([200.00, 1000.00],
                     [ 2.50000000E+00,  0.00000000E+00,  0.00000000E+00,
                       0.00000000E+00,  0.00000000E+00, -7.45375000E+02,
                       3.35532000E+00]),
                NASA([1000.00, 6000.00],
                     [ 2.50000000E+00,  0.00000000E+00,  0.00000000E+00,
                       0.00000000E+00,  0.00000000E+00, -7.45375000E+02,
                       3.35532000E+00])))

species(name=u'N2',
        atoms='N:2',
        thermo=(NASA([200.00, 1000.00],
                     [ 3.53101000E+00, -1.23661000E-04, -5.02999000E-07,
                       2.43531000E-09, -1.40881000E-12, -1.04698000E+03,
                       2.96747000E+00]),
                NASA([1000.00, 6000.00],
                     [ 2.95258000E+00,  1.39690000E-03, -4.92632000E-07,
                       7.86010000E-11, -4.60755000E-15, -9.23949000E+02,
                       5.87189000E+00])))

species(name=u'C2H4(2)',
        atoms='H:4 C:2',
        thermo=(NASA([100.00, 979.36],
                     [ 3.97471606E+00, -4.75844285E-03,  4.16783770E-05,
                      -4.51392516E-08,  1.54224761E-11,  4.91540746E+03,
                       3.62430844E+00]),
                NASA([979.36, 5000.00],
                     [ 3.55660610E+00,  1.10627464E-02, -4.17019079E-06,
                       7.85586770E-10, -5.70060829E-14,  4.32046489E+03,
                       2.17719479E+00])))

species(name=u'C4H8-1(3)',
        atoms='H:8 C:4',
        thermo=(NASA([100.00, 1007.28],
                     [ 2.58772906E+00,  2.32777969E-02,  1.93412349E-05,
                      -3.55496333E-08,  1.36906009E-11, -1.91872926E+03,
                       1.45750618E+01]),
                NASA([1007.28, 5000.00],
                     [ 7.20517168E+00,  2.36361568E-02, -9.03150028E-06,
                       1.65392666E-09, -1.16019260E-13, -3.79733937E+03,
                      -1.24426257E+01])))

species(name=u'C4H8-2(4)',
        atoms='H:8 C:4',
        thermo=(NASA([100.00, 1157.79],
                     [ 2.51998327E+00,  2.76812799E-02,  9.43783469E-07,
                      -1.25009101E-08,  4.67144666E-12, -3.34374767E+03,
                       1.30195623E+01]),
                NASA([1157.79, 5000.00],
                     [ 6.04225708E+00,  2.60072350E-02, -1.04843374E-05,
                       1.90880922E-09, -1.30600505E-13, -4.86276511E+03,
                      -7.52715109E+00])))

species(name=u'C4H6(7)',
        atoms='H:6 C:4',
        thermo=(NASA([100.00, 946.05],
                     [ 2.80599310E+00,  1.02584471E-02,  6.17260255E-05,
                      -9.01642687E-08,  3.59116961E-11,  1.16584972E+04,
                       1.20621434E+01]),
                NASA([946.05, 5000.00],
                     [ 1.24693720E+01,  1.00553901E-02, -2.41206872E-06,
                       4.57077303E-10, -3.93160571E-14,  8.01077795E+03,
                      -4.36374720E+01])))

species(name=u'H2(68)',
        atoms='H:2',
        thermo=(NASA([100.00, 1959.08],
                     [ 3.43536412E+00,  2.12710353E-04, -2.78625043E-07,
                       3.40267167E-10, -7.76031998E-14, -1.03135984E+03,
                      -3.90841732E+00]),
                NASA([1959.08, 5000.00],
                     [ 2.78816583E+00,  5.87640942E-04,  1.59010417E-07,
                      -5.52739026E-11,  4.34310984E-15, -5.96144270E+02,
                       1.12732655E-01])))

species(name=u'C6H8(111)',
        atoms='H:8 C:6',
        thermo=(NASA([100.00, 972.94],
                     [ 1.82686070E+00,  3.47046353E-02,  2.41070171E-05,
                      -5.44847920E-08,  2.29388832E-11,  1.99100661E+04,
                       1.81393315E+01]),
                NASA([972.94, 5000.00],
                     [ 1.21686202E+01,  2.40472785E-02, -8.58151834E-06,
                       1.57034031E-09, -1.12795334E-13,  1.63897115E+04,
                      -3.92195169E+01])))

species(name=u'C8H10(114)',
        atoms='H:10 C:8',
        thermo=(NASA([100.00, 1006.91],
                     [ 9.59099136E-01,  5.26052795E-02,  1.05118295E-05,
                      -4.60808495E-08,  1.99632153E-11,  2.84660811E+04,
                       2.42924801E+01]),
                NASA([1006.91, 5000.00],
                     [ 1.34171277E+01,  3.60526403E-02, -1.38971709E-05,
                       2.56761905E-09, -1.81631637E-13,  2.42875578E+04,
                      -4.41873377E+01])))

species(name=u'S(192)',
        atoms='H:16 C:12',
        thermo=(NASA([100.00, 980.77],
                     [-2.21845665E+00,  1.15202302E-01, -4.46058253E-05,
                      -2.89292454E-08,  2.08193354E-11,  3.97133228E+04,
                       4.48687920E+01]),
                NASA([980.77, 5000.00],
                     [ 2.59409200E+01,  4.89148103E-02, -1.74910345E-05,
                       3.12129948E-09, -2.18247198E-13,  3.18543069E+04,
                      -1.02343316E+02])))

species(name=u'S(203)',
        atoms='H:16 C:12',
        thermo=(NASA([100.00, 989.29],
                     [-1.49871027E+00,  8.97231513E-02,  3.13728211E-05,
                      -1.05849951E-07,  4.65472901E-11,  2.08342656E+04,
                       3.86324941E+01]),
                NASA([989.29, 5000.00],
                     [ 2.71231573E+01,  4.82447418E-02, -1.83146882E-05,
                       3.49879125E-09, -2.57494969E-13,  1.15378770E+04,
                      -1.17506583E+02])))

species(name=u'S(232)',
        atoms='H:12 C:10',
        thermo=(NASA([100.00, 1043.18],
                     [ 8.00010427E-02,  7.06155121E-02, -3.33970318E-06,
                      -3.75536308E-08,  1.70371997E-11,  3.70226034E+04,
                       3.04877535E+01]),
                NASA([1043.18, 5000.00],
                     [ 1.48527536E+01,  4.77532684E-02, -1.90425431E-05,
                       3.52560547E-09, -2.47266459E-13,  3.21023102E+04,
                      -5.02171312E+01])))

species(name=u'C8H10(266)',
        atoms='H:10 C:8',
        thermo=(NASA([100.00, 977.35],
                     [ 1.20172531E+00,  3.27274077E-02,  9.65442570E-05,
                      -1.46972960E-07,  5.73036376E-11,  3.66668179E+04,
                       1.86380248E+01]),
                NASA([977.35, 5000.00],
                     [ 1.91455428E+01,  3.13148912E-02, -1.18304959E-05,
                       2.35396563E-09, -1.80726910E-13,  2.97193129E+04,
                      -8.51181378E+01])))

species(name=u'S(473)',
        atoms='H:12 C:10',
        thermo=(NASA([100.00, 968.65],
                     [ 6.55596893E-03,  5.50367595E-02,  8.40309751E-05,
                      -1.50786277E-07,  6.17167027E-11,  3.87297379E+04,
                       2.63275406E+01]),
                NASA([968.65, 5000.00],
                     [ 2.42145071E+01,  3.63241455E-02, -1.28171324E-05,
                       2.46810154E-09, -1.87634557E-13,  3.02280478E+04,
                      -1.09367124E+02])))

species(name=u'S(566)',
        atoms='H:12 C:10',
        thermo=(NASA([100.00, 934.90],
                     [ 1.14949863E+00,  2.56056208E-02,  1.48145681E-04,
                      -2.17005632E-07,  8.71671305E-11,  1.98025721E+04,
                       2.52596418E+01]),
                NASA([934.90, 5000.00],
                     [ 2.30268642E+01,  2.66924504E-02, -5.52368921E-06,
                       9.11070585E-10, -7.58555397E-14,  1.15738298E+04,
                      -1.00944658E+02])))

species(name=u'S(644)',
        atoms='H:11 C:10',
        thermo=(NASA([100.00, 927.11],
                     [ 5.80169242E-01,  4.54991468E-02,  8.45438319E-05,
                      -1.52228728E-07,  6.51050039E-11,  3.12309550E+04,
                       2.57307422E+01]),
                NASA([927.11, 5000.00],
                     [ 2.31406667E+01,  2.44209791E-02, -4.73406672E-06,
                       6.89776122E-10, -5.41266922E-14,  2.37703881E+04,
                      -9.90782512E+01])))

species(name=u'S(681)',
        atoms='H:12 C:10',
        thermo=(NASA([100.00, 936.06],
                     [ 2.95830266E-01,  5.44689708E-02,  6.09446235E-05,
                      -1.25610619E-07,  5.46763618E-11,  1.70397067E+04,
                       2.51926264E+01]),
                NASA([936.06, 5000.00],
                     [ 2.24308561E+01,  2.84460946E-02, -7.22714492E-06,
                       1.19289639E-09, -8.89025831E-14,  9.89187725E+03,
                      -9.61788204E+01])))

species(name=u'S(759)',
        atoms='H:11 C:10',
        thermo=(NASA([100.00, 948.23],
                     [ 9.48610297E-01,  4.57480578E-02,  5.94433889E-05,
                      -1.07641581E-07,  4.44708543E-11,  3.15502157E+04,
                       2.71111390E+01]),
                NASA([948.23, 5000.00],
                     [ 1.56110390E+01,  3.74015703E-02, -1.19924608E-05,
                       2.08871417E-09, -1.48107957E-13,  2.63640891E+04,
                      -5.55310537E+01])))

species(name=u'S(885)',
        atoms='H:12 C:10',
        thermo=(NASA([100.00, 967.29],
                     [ 6.54512479E-01,  5.48222254E-02,  3.55433413E-05,
                      -8.07551584E-08,  3.39955407E-11,  1.73593892E+04,
                       2.66086089E+01]),
                NASA([967.29, 5000.00],
                     [ 1.50002003E+01,  4.12607497E-02, -1.43908124E-05,
                       2.56962456E-09, -1.81052037E-13,  1.24432657E+04,
                      -5.31901332E+01])))

species(name=u'S(1007)',
        atoms='H:14 C:12',
        thermo=(NASA([100.00, 950.27],
                     [-5.57825460E-01,  7.22327337E-02,  4.76638561E-05,
                      -1.17323641E-07,  5.15979111E-11,  2.55951014E+04,
                       3.12934768E+01]),
                NASA([950.27, 5000.00],
                     [ 2.34667276E+01,  4.08032257E-02, -1.27416508E-05,
                       2.23646027E-09, -1.61535227E-13,  1.78822140E+04,
                      -9.99436230E+01])))

species(name=u'S(1021)',
        atoms='H:11 C:10',
        thermo=(NASA([100.00, 1381.33],
                     [-1.31192539E+00,  1.01013018E-01, -1.27736229E-04,
                       8.55666301E-08, -1.99650689E-11,  2.79758071E+04,
                       2.80375735E+01]),
                NASA([1381.33, 5000.00],
                     [ 1.01895884E+01,  2.28569639E-02,  5.83780085E-06,
                      -2.40543758E-09,  2.10736184E-13,  2.90772183E+04,
                      -1.56778076E+01])))

species(name=u'S(1047)',
        atoms='H:11 C:10',
        thermo=(NASA([100.00, 1484.58],
                     [-4.56196696E-01,  9.24074697E-02, -6.88734636E-05,
                       2.61865012E-08, -4.07735686E-12,  2.66253293E+04,
                       2.65347718E+01]),
                NASA([1484.58, 5000.00],
                     [ 1.82404819E+01,  4.20315785E-02, -1.79741071E-05,
                       3.32949630E-09, -2.28270814E-13,  2.10740105E+04,
                      -7.10534674E+01])))

species(name=u'S(1144)',
        atoms='H:12 C:10',
        thermo=(NASA([100.00, 1353.28],
                     [-2.82907851E+00,  1.33494668E-01, -2.16608600E-04,
                       1.61817665E-07, -3.98678565E-11,  2.34958208E+04,
                       2.90311387E+01]),
                NASA([1353.28, 5000.00],
                     [ 8.26344325E+00,  8.75067107E-03,  2.35864592E-05,
                      -6.72171617E-09,  5.43464704E-13,  2.89139192E+04,
                       3.27118999E+00])))

species(name=u'S(1148)',
        atoms='H:12 C:10',
        thermo=(NASA([100.00, 953.51],
                     [ 8.21214316E-01,  4.73176809E-02,  6.19797203E-05,
                      -1.11881066E-07,  4.60176941E-11,  1.80592420E+04,
                       2.67156431E+01]),
                NASA([953.51, 5000.00],
                     [ 1.64234124E+01,  3.82596898E-02, -1.24852877E-05,
                       2.20904047E-09, -1.58058960E-13,  1.25202583E+04,
                      -6.12562002E+01])))

species(name=u'S(1329)',
        atoms='H:14 C:12',
        thermo=(NASA([100.00, 1068.15],
                     [-1.05537288E+00,  9.54829757E-02, -4.03613729E-05,
                      -9.48385705E-09,  8.84860091E-12,  2.59743294E+04,
                       3.73012724E+01]),
                NASA([1068.15, 5000.00],
                     [ 1.84321378E+01,  5.18475023E-02, -2.02877867E-05,
                       3.70393362E-09, -2.56869115E-13,  2.01373703E+04,
                      -6.58346987E+01])))

species(name=u'S(1464)',
        atoms='H:12 C:10',
        thermo=(NASA([100.00, 935.11],
                     [ 3.79339109E-01,  5.08577586E-02,  7.34866939E-05,
                      -1.39781495E-07,  5.99633437E-11,  1.76535888E+04,
                       2.84064947E+01]),
                NASA([935.11, 5000.00],
                     [ 2.29267017E+01,  2.76205204E-02, -6.67579693E-06,
                       1.09330263E-09, -8.30308816E-14,  1.02358661E+04,
                      -9.59737471E+01])))

species(name=u'S(1579)',
        atoms='H:14 C:12',
        thermo=(NASA([100.00, 949.90],
                     [-8.82108292E-01,  8.22364088E-02,  1.92749790E-05,
                      -8.90859952E-08,  4.19963807E-11,  2.68608649E+04,
                       3.50612260E+01]),
                NASA([949.90, 5000.00],
                     [ 2.38394358E+01,  4.02889124E-02, -1.26340650E-05,
                       2.19263427E-09, -1.56181278E-13,  1.93601609E+04,
                      -9.76953140E+01])))

species(name=u'S(1598)',
        atoms='H:13 C:12',
        thermo=(NASA([100.00, 1479.68],
                     [-3.39230301E+00,  1.30367388E-01, -1.46755286E-04,
                       8.66421178E-08, -1.82790486E-11,  3.58358207E+04,
                       3.50866473E+01]),
                NASA([1479.68, 5000.00],
                     [ 1.86769277E+01,  2.58006427E-02,  4.77151157E-06,
                      -2.13877205E-09,  1.86387653E-13,  3.42208489E+04,
                      -6.34198464E+01])))

species(name=u'S(1667)',
        atoms='H:14 C:12',
        thermo=(NASA([100.00, 956.11],
                     [-1.16000883E+00,  9.32631659E-02, -1.74758442E-05,
                      -4.84062172E-08,  2.70547773E-11,  2.43953015E+04,
                       3.43364545E+01]),
                NASA([956.11, 5000.00],
                     [ 2.26728164E+01,  4.22757068E-02, -1.39184794E-05,
                       2.40889853E-09, -1.67676348E-13,  1.76110790E+04,
                      -9.12189024E+01])))

species(name=u'S(1855)',
        atoms='H:14 C:12',
        thermo=(NASA([100.00, 1487.23],
                     [-3.66519900E+00,  1.33897125E-01, -1.52978224E-04,
                       9.16025147E-08, -1.94325840E-11,  3.35199489E+04,
                       4.21110579E+01]),
                NASA([1487.23, 5000.00],
                     [ 1.77091955E+01,  2.61303088E-02,  6.42485181E-06,
                      -2.58340787E-09,  2.21034925E-13,  3.27226897E+04,
                      -5.07977844E+01])))

species(name=u'S(2029)',
        atoms='H:12 C:10',
        thermo=(NASA([100.00, 1737.75],
                     [-4.59169651E-01,  8.87002450E-02, -5.78611405E-05,
                       1.87370675E-08, -2.46188243E-12,  7.41671002E+03,
                       2.83672103E+01]),
                NASA([1737.75, 5000.00],
                     [ 2.01555995E+01,  4.12475834E-02, -1.68998204E-05,
                       3.02241450E-09, -2.01057612E-13,  2.52202183E+02,
                      -8.24782274E+01])))

species(name=u'S(2161)',
        atoms='H:13 C:12',
        thermo=(NASA([100.00, 967.23],
                     [ 8.85608498E-02,  6.35791987E-02,  4.59739509E-05,
                      -9.91975145E-08,  4.13733796E-11,  4.01058875E+04,
                       3.32353656E+01]),
                NASA([967.23, 5000.00],
                     [ 1.67163940E+01,  4.96425511E-02, -1.74408049E-05,
                       3.11679058E-09, -2.19464805E-13,  3.43246056E+04,
                      -5.96881854E+01])))

species(name=u'S(2331)',
        atoms='H:14 C:12',
        thermo=(NASA([100.00, 1072.08],
                     [-9.78746983E-01,  9.57074924E-02, -5.10927358E-05,
                       2.95267047E-09,  4.66966551E-12,  2.04366660E+04,
                       3.22581592E+01]),
                NASA([1072.08, 5000.00],
                     [ 1.79699107E+01,  4.87191325E-02, -1.85232627E-05,
                       3.32874870E-09, -2.28590311E-13,  1.50111915E+04,
                      -6.68318386E+01])))

species(name=u'S(2442)',
        atoms='H:13 C:12',
        thermo=(NASA([100.00, 1230.39],
                     [-2.33680994E+00,  1.34572769E-01, -1.88110046E-04,
                       1.34433938E-07, -3.41738941E-11,  3.10269753E+04,
                       3.15155933E+01]),
                NASA([1230.39, 5000.00],
                     [ 1.54902780E+01,  2.71037754E-02,  3.27104363E-06,
                      -1.96951571E-09,  1.87223740E-13,  3.03879031E+04,
                      -4.29558310E+01])))

species(name=u'S(2789)',
        atoms='H:13 C:12',
        thermo=(NASA([100.00, 1022.95],
                     [-1.45109000E+00,  1.27155511E-01, -1.23169662E-04,
                       6.68005667E-08, -1.53343050E-11,  3.38245403E+04,
                       3.05852634E+01]),
                NASA([1022.95, 5000.00],
                     [ 1.48964448E+01,  6.32319899E-02, -2.94349659E-05,
                       5.71233636E-09, -4.04780317E-13,  3.04800200E+04,
                      -4.86529709E+01])))

species(name=u'X(1)',
        atoms='X:1',
        thermo=(NASA([100.00, 1554.80],
                     [ 7.10139498E-03, -4.25619522E-05,  8.98533016E-08,
                      -7.80193649E-11,  2.32465471E-14, -8.76101712E-01,
                      -3.11211229E-02]),
                NASA([1554.80, 5000.00],
                     [ 1.60299900E-01, -2.52235409E-04,  1.14181275E-07,
                      -1.21471653E-11,  3.85790025E-16, -7.08100885E+01,
                      -9.09527530E-01])))

species(name=u'HX(5)',
        atoms='H:1 X:1',
        thermo=(NASA([100.00, 952.91],
                     [-3.80965452E-01,  5.47228709E-03,  2.60912778E-06,
                      -9.64961980E-09,  4.63946753E-12, -7.19163862E+02,
                       1.01725550E+00]),
                NASA([952.91, 5000.00],
                     [ 2.80339655E+00, -5.41047017E-04,  4.99507978E-07,
                      -7.54963647E-11,  3.06772366E-15, -1.65991328E+03,
                      -1.59436787E+01])))

species(name=u'C2H3X(37)',
        atoms='H:3 C:2 X:1',
        thermo=(NASA([100.00, 928.62],
                     [ 3.83091018E+00, -8.76381562E-03,  6.97956896E-05,
                      -8.67969174E-08,  3.33218121E-11,  1.24795184E+04,
                      -1.81151753E+01]),
                NASA([928.62, 5000.00],
                     [ 8.78054562E+00,  1.92497720E-03,  8.25825014E-07,
                      -1.63749818E-10,  5.71728318E-15,  1.01801153E+04,
                      -4.90588618E+01])))

species(name=u'C4H5X(80)',
        atoms='H:5 C:4 X:1',
        thermo=(NASA([100.00, 936.52],
                     [ 2.68471723E+00,  1.36244496E-02,  5.32591849E-05,
                      -8.32912448E-08,  3.41499374E-11,  1.45727486E+04,
                      -1.06510487E+01]),
                NASA([936.52, 5000.00],
                     [ 1.29012266E+01,  8.96921861E-03, -1.71920076E-06,
                       2.89744517E-10, -2.58686364E-14,  1.09497097E+04,
                      -6.83963397E+01])))

species(name=u'C4H5X(81)',
        atoms='H:5 C:4 X:1',
        thermo=(NASA([100.00, 928.63],
                     [ 2.64232495E+00,  8.31109593E-03,  8.12146261E-05,
                      -1.21398701E-07,  4.98630759E-11,  1.97556574E+04,
                      -1.03932963E+01]),
                NASA([928.63, 5000.00],
                     [ 1.69490474E+01,  2.00818812E-03,  2.03468841E-06,
                      -4.02657023E-10,  1.85400094E-14,  1.47131630E+04,
                      -9.11990785E+01])))

species(name=u'C6H7X(132)',
        atoms='H:7 C:6 X:1',
        thermo=(NASA([100.00, 939.12],
                     [ 1.23971063E+00,  4.15294424E-02,  2.87312030E-05,
                      -7.68516542E-08,  3.51745289E-11,  2.00393518E+04,
                      -4.03285459E+00]),
                NASA([939.12, 5000.00],
                     [ 1.93724853E+01,  1.27701081E-02, -2.75741682E-06,
                       4.63865028E-10, -3.86965214E-14,  1.44960216E+04,
                      -1.01754711E+02])))

species(name=u'C6H7X(134)',
        atoms='H:7 C:6 X:1',
        thermo=(NASA([100.00, 945.31],
                     [ 1.76545134E+00,  3.00643386E-02,  5.04823806E-05,
                      -9.18356912E-08,  3.86710488E-11,  2.76552933E+04,
                      -4.22047906E+00]),
                NASA([945.31, 5000.00],
                     [ 1.62876414E+01,  1.66989483E-02, -4.60790511E-06,
                       8.23797195E-10, -6.40998588E-14,  2.27612606E+04,
                      -8.48285150E+01])))

species(name=u'C8H9X(267)',
        atoms='H:9 C:8 X:1',
        thermo=(NASA([100.00, 959.28],
                     [ 3.85882967E-01,  5.92908085E-02,  1.54833399E-05,
                      -6.86507645E-08,  3.21558607E-11,  2.85947555E+04,
                       2.06887013E+00]),
                NASA([959.28, 5000.00],
                     [ 2.04284767E+01,  2.50940018E-02, -8.25315628E-06,
                       1.50306504E-09, -1.10971517E-13,  2.24776020E+04,
                      -1.05633347E+02])))

species(name=u'C8H9X(269)',
        atoms='H:9 C:8 X:1',
        thermo=(NASA([100.00, 965.61],
                     [ 9.11784647E-01,  4.78191273E-02,  3.72831813E-05,
                      -8.37427917E-08,  3.57220277E-11,  3.62106920E+04,
                       1.88094318E+00]),
                NASA([965.61, 5000.00],
                     [ 1.73636393E+01,  2.89899348E-02, -1.00851243E-05,
                       1.85870102E-09, -1.36023408E-13,  3.07340870E+04,
                      -8.88204343E+01])))

species(name=u'SX(698)',
        atoms='H:11 C:10 X:1',
        thermo=(NASA([100.00, 931.42],
                     [ 1.37855314E+00,  1.74046655E-02,  1.73907541E-04,
                      -2.45597748E-07,  9.79004719E-11,  2.59341153E+04,
                       3.15663836E+00]),
                NASA([931.42, 5000.00],
                     [ 2.35692103E+01,  2.50867934E-02, -4.30881498E-06,
                       6.65483364E-10, -5.96461452E-14,  1.73333759E+04,
                      -1.26303350E+02])))

species(name=u'SX(701)',
        atoms='H:11 C:10 X:1',
        thermo=(NASA([100.00, 927.64],
                     [ 5.30078619E-01,  4.27204810E-02,  1.04697613E-04,
                      -1.77763104E-07,  7.49979219E-11,  2.14995157E+04,
                       4.98963719E+00]),
                NASA([927.64, 5000.00],
                     [ 2.48735289E+01,  2.39008362E-02, -4.17464067E-06,
                       5.92752551E-10, -4.94687897E-14,  1.32764371E+04,
                      -1.30604019E+02])))

species(name=u'SX(702)',
        atoms='H:11 C:10 X:1',
        thermo=(NASA([100.00, 945.72],
                     [ 1.31545334E+00,  1.61551888E-02,  1.84529695E-04,
                      -2.55691365E-07,  1.00088973E-10,  2.59536983E+04,
                       5.77276987E-01]),
                NASA([945.72, 5000.00],
                     [ 2.43922103E+01,  2.77058765E-02, -6.92068827E-06,
                       1.31147219E-09, -1.11309737E-13,  1.67074650E+04,
                      -1.35274627E+02])))

species(name=u'SX(804)',
        atoms='H:11 C:10 X:1',
        thermo=(NASA([100.00, 927.69],
                     [ 7.23541391E-01,  3.62537226E-02,  1.23659241E-04,
                      -1.97682305E-07,  8.21184824E-11,  2.12605045E+04,
                       9.82932715E+00]),
                NASA([927.69, 5000.00],
                     [ 2.50616261E+01,  2.31460857E-02, -3.63245521E-06,
                       4.99259780E-10, -4.44194027E-14,  1.27932313E+04,
                      -1.27059290E+02])))

species(name=u'SX(806)',
        atoms='H:11 C:10 X:1',
        thermo=(NASA([100.00, 927.64],
                     [ 5.30078619E-01,  4.27204810E-02,  1.04697613E-04,
                      -1.77763104E-07,  7.49979219E-11,  2.14995157E+04,
                       4.98963719E+00]),
                NASA([927.64, 5000.00],
                     [ 2.48735289E+01,  2.39008362E-02, -4.17464067E-06,
                       5.92752551E-10, -4.94687897E-14,  1.32764371E+04,
                      -1.30604019E+02])))

species(name=u'SX(844)',
        atoms='H:11 C:10 X:1',
        thermo=(NASA([100.00, 934.14],
                     [ 3.92255747E-01,  4.80392253E-02,  8.59911185E-05,
                      -1.55858457E-07,  6.63486426E-11,  2.64826355E+04,
                       9.90408598E-01]),
                NASA([934.14, 5000.00],
                     [ 2.43425491E+01,  2.52635683E-02, -5.54441511E-06,
                       8.94638917E-10, -7.09271843E-14,  1.85272087E+04,
                      -1.31555525E+02])))

species(name=u'SX(847)',
        atoms='H:11 C:10 X:1',
        thermo=(NASA([100.00, 858.71],
                     [-2.36223809E+00,  1.72253487E-01, -3.32016772E-04,
                       3.36237372E-07, -1.26252709E-10,  1.99007502E+04,
                      -3.70571050E+01]),
                NASA([858.71, 5000.00],