units(length='cm', time='s', quantity='mol', act_energy='kcal/mol')

ideal_gas(name='gas',
          elements="H D T C Ci O Oi N Ne Ar He Si S Cl X",
          species="""n-heptane   Ar          He          Ne
                     N2          C2H4(2)     C4H8-1(3)   C4H8-2(4)
                     C4H6(7)     C6H8(9)     H2(68)      C8H10(113)
                     S(181)      S(185)      S(309)      C8H12(748)
                     S(753)      S(848)      C7H8(1255)  C5H8(1418)
                     S(1708)     S(2051)""",
          reactions='gas-*',
          initial_state=state(temperature=300.0, pressure=OneAtm))

ideal_interface(name='surface1',
                elements="H D T C Ci O Oi N Ne Ar He Si S Cl X",
                species="""X(1)        HX(5)       C2H3X(37)   C4H5X(80)
                          C4H5X(81)   C6H7X(132)  C6H7X(133)  C6H7X(134)
                          SX(219)     C6H7X(233)  SX(469)     SX(471)
                          SX(473)     SX(474)     SX(475)     SX(476)
                          SX(477)     SX(481)     SX(482)     C8H9X(533)
                          C8H9X(534)  C8H9X(535)  C8H9X(536)  SX(710)
                          SX(711)     SX(712)     SX(713)     SX(714)
                          SX(715)     SX(716)     SX(717)     SX(720)
                          SX(722)     SX(739)     C7H9X(742)  SX(852)
                          SX(853)     SX(861)     SX(862)     SX(863)
                          SX(864)     SX(1020)    SX(1024)    SX(1029)
                          SX(1032)    SX(1033)    SX(1042)    SX(1110)
                          SX(1111)    SX(1222)    SX(1242)    SX(1244)
                          SX(1247)    SX(1307)    SX(1308)    SX(1312)
                          SX(1412)    SX(1482)    SX(1675)    SX(1683)
                          SX(1684)    SX(1689)    SX(1690)    SX(1691)""",
                site_density=2.72e-09,
                phases="gas",
          reactions='surface1-*',
                initial_state=state(temperature=300.0, pressure=OneAtm))

#-------------------------------------------------------------------------------
# Element data
#-------------------------------------------------------------------------------

element(symbol=u'X', atomic_mass=195.083)
element(symbol=u'Ci', atomic_mass=13.003)
element(symbol=u'D', atomic_mass=2.014)
element(symbol=u'Oi', atomic_mass=18.0)
element(symbol=u'T', atomic_mass=3.016)
#-------------------------------------------------------------------------------
# Species data
#-------------------------------------------------------------------------------

species(name=u'n-heptane',
        atoms='H:16 C:7',
        thermo=(NASA([100.00, 1262.75],
                     [-2.93512125E-03,  7.69375610E-02, -3.48031525E-05,
                       1.86160506E-09,  2.01550529E-12, -2.57829334E+04,
                       3.00312819E+01]),
                NASA([1262.75, 5000.00],
                     [ 1.38379971E+01,  4.85941816E-02, -1.95472819E-05,
                       3.52833289E-09, -2.39061569E-13, -3.05142526E+04,
                      -4.48654615E+01])))

species(name=u'Ar',
        atoms='Ar:1',
        thermo=(NASA([200.00, 1000.00],
                     [ 2.50000000E+00,  0.00000000E+00,  0.00000000E+00,
                       0.00000000E+00,  0.00000000E+00, -7.45375000E+02,
                       4.37967000E+00]),
                NASA([1000.00, 6000.00],
                     [ 2.50000000E+00,  0.00000000E+00,  0.00000000E+00,
                       0.00000000E+00,  0.00000000E+00, -7.45375000E+02,
                       4.37967000E+00])))

species(name=u'He',
        atoms='He:1',
        thermo=(NASA([200.00, 1000.00],
                     [ 2.50000000E+00,  0.00000000E+00,  0.00000000E+00,
                       0.00000000E+00,  0.00000000E+00, -7.45375000E+02,
                       9.28724000E-01]),
                NASA([1000.00, 6000.00],
                     [ 2.50000000E+00,  0.00000000E+00,  0.00000000E+00,
                       0.00000000E+00,  0.00000000E+00, -7.45375000E+02,
                       9.28724000E-01])))

species(name=u'Ne',
        atoms='Ne:1',
        thermo=(NASA([200.00, 1000.00],
                     [ 2.50000000E+00,  0.00000000E+00,  0.00000000E+00,
                       0.00000000E+00,  0.00000000E+00, -7.45375000E+02,
                       3.35532000E+00]),
                NASA([1000.00, 6000.00],
                     [ 2.50000000E+00,  0.00000000E+00,  0.00000000E+00,
                       0.00000000E+00,  0.00000000E+00, -7.45375000E+02,
                       3.35532000E+00])))

species(name=u'N2',
        atoms='N:2',
        thermo=(NASA([200.00, 1000.00],
                     [ 3.53101000E+00, -1.23661000E-04, -5.02999000E-07,
                       2.43531000E-09, -1.40881000E-12, -1.04698000E+03,
                       2.96747000E+00]),
                NASA([1000.00, 6000.00],
                     [ 2.95258000E+00,  1.39690000E-03, -4.92632000E-07,
                       7.86010000E-11, -4.60755000E-15, -9.23949000E+02,
                       5.87189000E+00])))

species(name=u'C2H4(2)',
        atoms='H:4 C:2',
        thermo=(NASA([100.00, 979.37],
                     [ 3.97469045E+00, -4.75813325E-03,  4.16772624E-05,
                      -4.51377676E-08,  1.54218287E-11,  4.91540855E+03,
                       3.62439976E+00]),
                NASA([979.37, 5000.00],
                     [ 3.55670229E+00,  1.10625819E-02, -4.17009559E-06,
                       7.85564219E-10, -5.70042086E-14,  4.32042473E+03,
                       2.17665377E+00])))

species(name=u'C4H8-1(3)',
        atoms='H:8 C:4',
        thermo=(NASA([100.00, 1007.28],
                     [ 2.58772978E+00,  2.32777883E-02,  1.93412653E-05,
                      -3.55496729E-08,  1.36906178E-11, -1.91872929E+03,
                       1.45750592E+01]),
                NASA([1007.28, 5000.00],
                     [ 7.20516863E+00,  2.36361619E-02, -9.03150325E-06,
                       1.65392736E-09, -1.16019318E-13, -3.79733809E+03,
                      -1.24426086E+01])))

species(name=u'C4H8-2(4)',
        atoms='H:8 C:4',
        thermo=(NASA([100.00, 1157.78],
                     [ 2.51999305E+00,  2.76811707E-02,  9.44135366E-07,
                      -1.25013222E-08,  4.67160311E-12, -3.34374810E+03,
                       1.30195268E+01]),
                NASA([1157.78, 5000.00],
                     [ 6.04218222E+00,  2.60073554E-02, -1.04844041E-05,
                       1.90882450E-09, -1.30601743E-13, -4.86273126E+03,
                      -7.52672501E+00])))

species(name=u'C4H6(7)',
        atoms='H:6 C:4',
        thermo=(NASA([100.00, 946.05],
                     [ 2.80594317E+00,  1.02590609E-02,  6.17237648E-05,
                      -9.01611778E-08,  3.59103084E-11,  1.16584993E+04,
                       1.20623208E+01]),
                NASA([946.05, 5000.00],
                     [ 1.24695345E+01,  1.00551088E-02, -2.41190446E-06,
                       4.57038145E-10, -3.93127871E-14,  8.01071120E+03,
                      -4.36383840E+01])))

species(name=u'C6H8(9)',
        atoms='H:8 C:6',
        thermo=(NASA([100.00, 941.22],
                     [ 1.38427839E+00,  4.14411676E-02,  1.94286778E-05,
                      -6.16687823E-08,  2.86503237E-11,  1.76317462E+04,
                       1.93257559E+01]),
                NASA([941.22, 5000.00],
                     [ 1.69619725E+01,  1.57221629E-02, -4.10117912E-06,
                       6.95735258E-10, -5.26520576E-14,  1.29061653E+04,
                      -6.44097805E+01])))

species(name=u'H2(68)',
        atoms='H:2',
        thermo=(NASA([100.00, 1959.08],
                     [ 3.43536411E+00,  2.12710383E-04, -2.78625110E-07,
                       3.40267219E-10, -7.76032129E-14, -1.03135984E+03,
                      -3.90841731E+00]),
                NASA([1959.08, 5000.00],
                     [ 2.78816619E+00,  5.87640475E-04,  1.59010635E-07,
                      -5.52739465E-11,  4.34311304E-15, -5.96144481E+02,
                       1.12730527E-01])))

species(name=u'C8H10(113)',
        atoms='H:10 C:8',
        thermo=(NASA([100.00, 941.39],
                     [ 8.64066480E-02,  6.59512573E-02,  1.48806368E-06,
                      -6.06834808E-08,  3.13832585E-11,  2.39088947E+04,
                       2.66194394E+01]),
                NASA([941.39, 5000.00],
                     [ 2.28419165E+01,  1.96702446E-02, -5.08789164E-06,
                       8.53647924E-10, -6.42353888E-14,  1.73909208E+04,
                      -9.36517408E+01])))

species(name=u'S(181)',
        atoms='H:16 C:12',
        thermo=(NASA([100.00, 985.43],
                     [-1.88309559E+00,  1.07042782E-01, -2.70575175E-05,
                      -4.30521591E-08,  2.47769762E-11,  4.00783515E+04,
                       4.74622652E+01]),
                NASA([985.43, 5000.00],
                     [ 2.44924173E+01,  5.06802141E-02, -1.84364732E-05,
                       3.32429337E-09, -2.33628170E-13,  3.24184482E+04,
                      -9.18874447E+01])))

species(name=u'S(185)',
        atoms='H:16 C:12',
        thermo=(NASA([100.00, 992.46],
                     [-1.36729922E+00,  9.09281156E-02,  1.69886510E-05,
                      -8.53926708E-08,  3.84292138E-11,  2.11993211E+04,
                       3.87739443E+01]),
                NASA([992.46, 5000.00],
                     [ 2.42203013E+01,  5.14038229E-02, -1.94054924E-05,
                       3.62907015E-09, -2.61719468E-13,  1.29879994E+04,
                      -1.00258754E+02])))

species(name=u'S(309)',
        atoms='H:16 C:12',
        thermo=(NASA([100.00, 967.86],
                     [-1.32199649E+00,  8.47366715E-02,  4.59829753E-05,
                      -1.23787643E-07,  5.42522776E-11,  2.23199242E+04,
                       3.57017535E+01]),
                NASA([967.86, 5000.00],
                     [ 2.71808180E+01,  4.57703342E-02, -1.58004061E-05,
                       2.92353835E-09, -2.14852771E-13,  1.31103467E+04,
                      -1.19950987E+02])))

species(name=u'C8H12(748)',
        atoms='H:12 C:8',
        thermo=(NASA([100.00, 966.56],
                     [-1.28181569E-01,  7.35572718E-02, -1.44332890E-05,
                      -3.89699431E-08,  2.17300225E-11,  1.04422482E+04,
                       2.89601700E+01]),
                NASA([966.56, 5000.00],
                     [ 2.02785356E+01,  2.99584866E-02, -1.01704744E-05,
                       1.81720882E-09, -1.29537993E-13,  4.58909577E+03,
                      -7.86679011E+01])))

species(name=u'S(753)',
        atoms='H:16 C:12',
        thermo=(NASA([100.00, 977.34],
                     [-2.74602372E+00,  1.25929208E-01, -6.64336490E-05,
                      -1.47524220E-08,  1.77489038E-11,  2.62279990E+04,
                       4.47491268E+01]),
                NASA([977.34, 5000.00],
                     [ 3.01372316E+01,  4.17343413E-02, -1.45467678E-05,
                       2.60498841E-09, -1.84395162E-13,  1.73938533E+04,
                      -1.25451411E+02])))

species(name=u'S(848)',
        atoms='H:16 C:12',
        thermo=(NASA([100.00, 988.05],
                     [-9.90770325E-01,  7.49444395E-02,  7.30752701E-05,
                      -1.45591894E-07,  5.94751053E-11,  3.52111416E+04,
                       3.82242603E+01]),
                NASA([988.05, 5000.00],
                     [ 2.57482583E+01,  5.13983051E-02, -1.97707784E-05,
                       3.81948286E-09, -2.83266390E-13,  2.57926927E+04,
                      -1.11377447E+02])))

species(name=u'C7H8(1255)',
        atoms='H:8 C:7',
        thermo=(NASA([100.00, 966.81],
                     [ 1.90138525E+00,  2.67868538E-02,  6.30521699E-05,
                      -9.95222044E-08,  3.94204772E-11,  1.54781490E+04,
                       1.80531034E+01]),
                NASA([966.81, 5000.00],
                     [ 1.41488855E+01,  2.45164374E-02, -8.51968614E-06,
                       1.61189376E-09, -1.20789888E-13,  1.08478552E+04,
                      -5.23193518E+01])))

species(name=u'C5H8(1418)',
        atoms='H:8 C:5',
        thermo=(NASA([100.00, 1049.25],
                     [ 2.01062125E+00,  3.15407221E-02,  2.07789363E-05,
                      -4.44088837E-08,  1.72419051E-11,  7.01383968E+03,
                       1.65768357E+01]),
                NASA([1049.25, 5000.00],
                     [ 1.14809952E+01,  2.45641648E-02, -1.08867246E-05,
                       2.16706993E-09, -1.59145754E-13,  3.42314851E+03,
                      -3.72078949E+01])))

species(name=u'S(1708)',
        atoms='H:16 C:12',
        thermo=(NASA([100.00, 990.56],
                     [-1.32897915E+00,  8.56182008E-02,  4.02397597E-05,
                      -1.13038401E-07,  4.85832217E-11,  2.10166925E+04,
                       3.92287958E+01]),
                NASA([990.56, 5000.00],
                     [ 2.63933768E+01,  4.91370765E-02, -1.87930565E-05,
                       3.60163863E-09, -2.65298454E-13,  1.18221981E+04,
                      -1.12940806E+02])))

species(name=u'S(2051)',
        atoms='H:16 C:12',
        thermo=(NASA([100.00, 911.85],
                     [-1.33609459E+00,  4.63027982E-02,  2.34416435E-04,
                      -3.86157255E-07,  1.66327224E-10,  2.18115178E+04,
                       4.06060071E+01]),
                NASA([911.85, 5000.00],
                     [ 5.29601348E+01, -6.39074443E-03,  1.59676678E-05,
                      -3.35937702E-09,  2.12569373E-13,  4.19823199E+03,
                      -2.58615369E+02])))

species(name=u'X(1)',
        atoms='X:1',
        thermo=(NASA([100.00, 1554.81],
                     [ 7.10134880E-03, -4.25615041E-05,  8.98521156E-08,
                      -7.80182565E-11,  2.32462166E-14, -8.76099414E-01,
                      -3.11209498E-02]),
                NASA([1554.81, 5000.00],
                     [ 1.60301287E-01, -2.52237396E-04,  1.14182282E-07,
                      -1.21473809E-11,  3.85806589E-16, -7.08108147E+01,
                      -9.09535600E-01])))

species(name=u'HX(5)',
        atoms='H:1 X:1',
        thermo=(NASA([100.00, 952.91],
                     [-3.80957846E-01,  5.47219393E-03,  2.60946928E-06,
                      -9.65008412E-09,  4.63967474E-12, -7.19164186E+02,
                       1.01722845E+00]),
                NASA([952.91, 5000.00],
                     [ 2.80337105E+00, -5.41002993E-04,  4.99482316E-07,
                      -7.54902555E-11,  3.06721398E-15, -1.65990277E+03,
                      -1.59435356E+01])))

species(name=u'C2H3X(37)',
        atoms='H:3 C:2 X:1',
        thermo=(NASA([100.00, 928.60],
                     [ 3.83104022E+00, -8.76542826E-03,  6.98017027E-05,
                      -8.68052566E-08,  3.33256145E-11,  6.67725978E+03,
                      -1.81156365E+01]),
                NASA([928.60, 5000.00],
                     [ 8.78015372E+00,  1.92565992E-03,  8.25424482E-07,
                      -1.63654020E-10,  5.70926320E-15,  4.37802175E+03,
                      -4.90566656E+01])))

species(name=u'C4H5X(80)',
        atoms='H:5 C:4 X:1',
        thermo=(NASA([100.00, 936.52],
                     [ 2.68471814E+00,  1.36244384E-02,  5.32592262E-05,
                      -8.32913017E-08,  3.41499632E-11,  8.77049546E+03,
                      -1.06510519E+01]),
                NASA([936.52, 5000.00],
                     [ 1.29012238E+01,  8.96922349E-03, -1.71920361E-06,
                       2.89745198E-10, -2.58686934E-14,  5.14745770E+03,
                      -6.83963240E+01])))

species(name=u'C4H5X(81)',
        atoms='H:5 C:4 X:1',
        thermo=(NASA([100.00, 928.62],
                     [ 2.64239936E+00,  8.31017311E-03,  8.12180670E-05,
                      -1.21403473E-07,  4.98652517E-11,  1.39534011E+04,
                      -1.03935602E+01]),
                NASA([928.62, 5000.00],
                     [ 1.69488231E+01,  2.00857887E-03,  2.03445917E-06,
                      -4.02602194E-10,  1.85354193E-14,  8.91100120E+03,
                      -9.11978215E+01])))

species(name=u'C6H7X(132)',
        atoms='H:7 C:6 X:1',
        thermo=(NASA([100.00, 921.06],
                     [ 1.31098703E+00,  3.98938896E-02,  3.32176678E-05,
                      -8.35174769E-08,  3.86291185E-11,  1.37873966E+04,
                      -3.79681512E+00]),
                NASA([921.06, 5000.00],
                     [ 1.94242456E+01,  1.10873203E-02, -1.06260774E-06,
                       6.27632967E-11, -7.94405419E-15,  8.33593945E+03,
                      -1.01173483E+02])))

species(name=u'C6H7X(133)',
        atoms='H:7 C:6 X:1',
        thermo=(NASA([100.00, 937.50],
                     [ 1.68534398E+00,  3.10727560E-02,  5.20804043E-05,
                      -9.63159071E-08,  4.10725706E-11,  1.03875770E+04,
                      -3.14969376E+00]),
                NASA([937.50, 5000.00],
                     [ 1.71062698E+01,  1.56096252E-02, -3.71085468E-06,
                       6.25094970E-10, -4.95752994E-14,  5.28425528E+03,
                      -8.83482755E+01])))

species(name=u'C6H7X(134)',
        atoms='H:7 C:6 X:1',
        thermo=(NASA([100.00, 928.32],
                     [ 1.31533986E+00,  3.68784383E-02,  4.55982789E-05,
                      -9.88748537E-08,  4.43876422E-11,  1.95750469E+04,
                      -3.00642679E+00]),
                NASA([928.32, 5000.00],
                     [ 2.11711895E+01,  8.22305277E-03, -4.16748407E-08,
                      -7.09143678E-11, -2.30023750E-15,  1.34367589E+04,
                      -1.10528035E+02])))

species(name=u'SX(219)',
        atoms='H:11 C:8 X:1',
        thermo=(NASA([100.00, 958.97],
                     [-1.29580872E-01,  7.13774021E-02, -4.26687430E-06,
                      -5.28328946E-08,  2.74203243E-11,  1.95907427E+04,
                       9.83088009E+00]),
                NASA([958.97, 5000.00],
                     [ 2.17337834E+01,  2.72644778E-02, -8.91170460E-06,
                       1.59381901E-09, -1.15613754E-13,  1.32325897E+04,
                      -1.06018841E+02])))

species(name=u'C6H7X(233)',
        atoms='H:7 C:6 X:1',
        thermo=(NASA([100.00, 945.30],
                     [ 1.76553355E+00,  3.00633278E-02,  5.04861057E-05,
                      -9.18407872E-08,  3.86733382E-11,  2.18530367E+04,
                      -4.22077117E+00]),
                NASA([945.30, 5000.00],
                     [ 1.62873747E+01,  1.66994099E-02, -4.60817474E-06,
                       8.23861477E-10, -6.41052275E-14,  1.69591170E+04,
                      -8.48270189E+01])))

species(name=u'SX(469)',
        atoms='H:15 C:12 X:1',
        thermo=(NASA([100.00, 998.99],
                     [-8.99681644E-01,  7.61931439E-02,  6.22666080E-05,
                      -1.28391527E-07,  5.19511337E-11,  1.78535990E+04,
                       1.70468401E+01]),
                NASA([998.99, 5000.00],
                     [ 2.29686336E+01,  5.66217120E-02, -2.24603797E-05,
                       4.30371748E-09, -3.14006954E-13,  9.29254575E+03,
                      -1.17060178E+02])))

species(name=u'SX(471)',
        atoms='H:15 C:12 X:1',
        thermo=(NASA([100.00, 984.85],
                     [-1.25406433E+00,  8.14711964E-02,  5.99711863E-05,
                      -1.35053269E-07,  5.65286943E-11,  1.52651458E+04,
                       1.50882404E+01]),
                NASA([984.85, 5000.00],
                     [ 2.64952131E+01,  5.12034378E-02, -1.94861180E-05,
                       3.72562272E-09, -2.74710317E-13,  5.80147265E+03,
                      -1.38659347E+02])))

species(name=u'SX(473)',
        atoms='H:15 C:12 X:1',
        thermo=(NASA([100.00, 965.88],
                     [-9.39659102E-01,  7.09157952E-02,  8.81192817E-05,
                      -1.68466748E-07,  7.00250655E-11,  2.23907560E+04,
                       1.75963708E+01]),
                NASA([965.88, 5000.00],
                     [ 2.80707627E+01,  4.41051552E-02, -1.51840188E-05,
                       2.87430427E-09, -2.16535705E-13,  1.24331104E+04,
                      -1.43891551E+02])))

species(name=u'SX(474)',
        atoms='H:15 C:12 X:1',
        thermo=(NASA([100.00, 976.32],
                     [-1.37895498E+00,  8.72745360E-02,  3.54588708E-05,
                      -1.10982201E-07,  4.90757397E-11,  2.20255098E+04,
                       1.56121273E+01]),
                NASA([976.32, 5000.00],
                     [ 2.68034823E+01,  4.65639241E-02, -1.68427426E-05,
                       3.15338239E-09, -2.31112121E-13,  1.29597179E+04,
                      -1.37922322E+02])))

species(name=u'SX(475)',
        atoms='H:15 C:12 X:1',
        thermo=(NASA([100.00, 976.32],
                     [-1.37895498E+00,  8.72745360E-02,  3.54588708E-05,
                      -1.10982201E-07,  4.90757397E-11,  2.20255098E+04,
                       1.56121273E+01]),
                NASA([976.32, 5000.00],
                     [ 2.68034823E+01,  4.65639241E-02, -1.68427426E-05,
                       3.15338239E-09, -2.31112121E-13,  1.29597179E+04,
                      -1.37922322E+02])))

species(name=u'SX(476)',
        atoms='H:15 C:12 X:1',
        thermo=(NASA([100.00, 976.32],
                     [-1.37895498E+00,  8.72745360E-02,  3.54588708E-05,
                      -1.10982201E-07,  4.90757397E-11,  2.20255098E+04,
                       1.56121273E+01]),
                NASA([976.32, 5000.00],
                     [ 2.68034823E+01,  4.65639241E-02, -1.68427426E-05,
                       3.15338239E-09, -2.31112121E-13,  1.29597179E+04,
                      -1.37922322E+02])))

species(name=u'SX(477)',
        atoms='H:15 C:12 X:1',
        thermo=(NASA([100.00, 976.32],
                     [-1.37895498E+00,  8.72745360E-02,  3.54588708E-05,
                      -1.10982201E-07,  4.90757397E-11,  2.20255098E+04,
                       1.56121273E+01]),
                NASA([976.32, 5000.00],
                     [ 2.68034823E+01,  4.65639241E-02, -1.68427426E-05,
                       3.15338239E-09, -2.31112121E-13,  1.29597179E+04,
                      -1.37922322E+02])))

species(name=u'SX(481)',
        atoms='H:15 C:12 X:1',
        thermo=(NASA([100.00, 970.35],
                     [-1.41780951E+00,  8.61769845E-02,  4.36522811E-05,
                      -1.22940533E-07,  5.41523646E-11,  2.31418182E+04,
                       1.56808778E+01]),
                NASA([970.35, 5000.00],
                     [ 2.81972010E+01,  4.42909715E-02, -1.55651487E-05,
                       2.91357405E-09, -2.15572214E-13,  1.36190014E+04,
                      -1.45757041E+02])))

species(name=u'SX(482)',
        atoms='H:15 C:12 X:1',
        thermo=(NASA([100.00, 970.35],
                     [-1.41780951E+00,  8.61769845E-02,  4.36522811E-05,
                      -1.22940533E-07,  5.41523646E-11,  2.31418182E+04,
                       1.56808778E+01]),
                NASA([970.35, 5000.00],
                     [ 2.81972010E+01,  4.42909715E-02, -1.55651487E-05,
                       2.91357405E-09, -2.15572214E-13,  1.36190014E+04,
                      -1.45757041E+02])))

species(name=u'C8H9X(533)',
        atoms='H:9 C:8 X:1',
        thermo=(NASA([100.00, 938.21],
                     [ 3.87929657E-01,  5.55772679E-02,  3.41600896E-05,
                      -9.53579225E-08,  4.38175370E-11,  1.66647061E+04,
                       4.14236180E+00]),
                NASA([938.21, 5000.00],
                     [ 2.29845027E+01,  1.95606548E-02, -4.69928315E-06,
                       7.83415745E-10, -6.11926536E-14,  9.76971770E+03,
                      -1.17580626E+02])))

species(name=u'C8H9X(534)',
        atoms='H:9 C:8 X:1',
        thermo=(NASA([100.00, 924.30],
                     [ 1.56490513E-02,  6.43739896E-02,  1.53811335E-05,
                      -8.26630677E-08,  4.14146929E-11,  2.00644369E+04,
                       3.48779964E+00]),
                NASA([924.30, 5000.00],
                     [ 2.52908506E+01,  1.50581840E-02, -2.06250089E-06,
                       2.23796941E-10, -1.97867187E-14,  1.28262650E+04,
                      -1.30340427E+02])))

species(name=u'C8H9X(535)',
        atoms='H:9 C:8 X:1',
        thermo=(NASA([100.00, 938.21],
                     [ 3.87929657E-01,  5.55772679E-02,  3.41600896E-05,
                      -9.53579225E-08,  4.38175370E-11,  1.66647061E+04,
                       4.14236180E+00]),
                NASA([938.21, 5000.00],
                     [ 2.29845027E+01,  1.95606548E-02, -4.69928315E-06,
                       7.83415745E-10, -6.11926536E-14,  9.76971770E+03,
                      -1.17580626E+02])))

species(name=u'C8H9X(536)',
        atoms='H:9 C:8 X:1',
        thermo=(NASA([100.00, 930.19],
                     [ 1.94122812E-02,  6.13650845E-02,  2.77415082E-05,
                      -9.79997000E-08,  4.71676258E-11,  2.58521125E+04,
                       4.28032279E+00]),
                NASA([930.19, 5000.00],
                     [ 2.70426665E+01,  1.21856615E-02, -1.03681927E-06,
                       8.89995491E-11, -1.40501528E-14,  1.79250304E+04,
                      -1.39722414E+02])))

species(name=u'SX(710)',
        atoms='H:15 C:12 X:1',
        thermo=(NASA([100.00, 955.41],
                     [-3.77377439E-01,  5.39172152E-02,  1.37553971E-04,
                      -2.19717076E-07,  8.84792194E-11,  2.04150664E+04,
                       1.69438794E+01]),
                NASA([955.41, 5000.00],
                     [ 2.73967040E+01,  4.40439111E-02, -1.40052797E-05,
                       2.60896776E-09, -1.99034221E-13,  1.02514089E+04,
                      -1.41198986E+02])))

species(name=u'SX(711)',
        atoms='H:15 C:12 X:1',
        thermo=(NASA([100.00, 972.20],
                     [-1.17668828E+00,  8.06807964E-02,  5.49635336E-05,
                      -1.31421934E-07,  5.63635583E-11,  3.01743309E+04,
                       1.68158987E+01]),
                NASA([972.20, 5000.00],
                     [ 2.68990987E+01,  4.60458530E-02, -1.63871878E-05,
                       3.07698288E-09, -2.27353188E-13,  2.08930295E+04,
                      -1.37499720E+02])))

species(name=u'SX(712)',
        atoms='H:15 C:12 X:1',
        thermo=(NASA([100.00, 965.89],
                     [-1.00971527E+00,  7.64988184E-02,  6.69829787E-05,
                      -1.43294732E-07,  6.06293006E-11,  2.11777609E+04,
                       1.35283835E+01]),
                NASA([965.89, 5000.00],
                     [ 2.60237773E+01,  4.73683394E-02, -1.64000565E-05,
                       3.03400310E-09, -2.23019650E-13,  1.20921027E+04,
                      -1.35953566E+02])))

species(name=u'SX(713)',
        atoms='H:15 C:12 X:1',
        thermo=(NASA([100.00, 955.56],
                     [-7.54342160E-01,  6.47582007E-02,  1.08167038E-04,
                      -1.91444631E-07,  7.90743839E-11,  2.12402578E+04,
                       1.49974598E+01]),
                NASA([955.56, 5000.00],
                     [ 2.82739830E+01,  4.27829775E-02, -1.35881730E-05,
                       2.51235113E-09, -1.90366337E-13,  1.11482099E+04,
                      -1.47506528E+02])))

species(name=u'SX(714)',
        atoms='H:15 C:12 X:1',
        thermo=(NASA([100.00, 958.35],
                     [-1.34095903E+00,  8.11576599E-02,  6.42570903E-05,
                      -1.49237031E-07,  6.48985619E-11,  2.31464331E+04,
                       1.25668143E+01]),
                NASA([958.35, 5000.00],
                     [ 2.98586424E+01,  4.07738785E-02, -1.31491592E-05,
                       2.42725245E-09, -1.82555963E-13,  1.30408831E+04,
                      -1.58150049E+02])))

species(name=u'SX(715)',
        atoms='H:15 C:12 X:1',
        thermo=(NASA([100.00, 958.35],
                     [-1.34095903E+00,  8.11576599E-02,  6.42570903E-05,
                      -1.49237031E-07,  6.48985619E-11,  2.31464331E+04,
                       1.25668143E+01]),
                NASA([958.35, 5000.00],
                     [ 2.98586424E+01,  4.07738785E-02, -1.31491592E-05,
                       2.42725245E-09, -1.82555963E-13,  1.30408831E+04,
                      -1.58150049E+02])))

species(name=u'SX(716)',
        atoms='H:15 C:12 X:1',
        thermo=(NASA([100.00, 958.35],
                     [-1.34095903E+00,  8.11576599E-02,  6.42570903E-05,
                      -1.49237031E-07,  6.48985619E-11,  2.31464331E+04,
                       1.25668143E+01]),
                NASA([958.35, 5000.00],
                     [ 2.98586424E+01,  4.07738785E-02, -1.31491592E-05,
                       2.42725245E-09, -1.82555963E-13,  1.30408831E+04,
                      -1.58150049E+02])))

species(name=u'SX(717)',
        atoms='H:15 C:12 X:1',
        thermo=(NASA([100.00, 952.79],
                     [-1.39064476E+00,  8.31564972E-02,  5.97636951E-05,
                      -1.45403149E-07,  6.40118121E-11,  1.84753679E+04,
                       1.18681287E+01]),
                NASA([952.79, 5000.00],
                     [ 2.95230890E+01,  4.13348590E-02, -1.28748816E-05,
                       2.31693850E-09, -1.72311508E-13,  8.59199159E+03,
                      -1.56729575E+02])))

species(name=u'SX(720)',
        atoms='H:15 C:12 X:1',
        thermo=(NASA([100.00, 952.79],
                     [-1.39064476E+00,  8.31564972E-02,  5.97636951E-05,
                      -1.45403149E-07,  6.40118121E-11,  1.84753679E+04,
                       1.18681287E+01]),
                NASA([952.79, 5000.00],
                     [ 2.95230890E+01,  4.13348590E-02, -1.28748816E-05,