units(length='cm', time='s', quantity='mol', act_energy='kcal/mol')

ideal_gas(name='gas',
          elements="H D T C Ci O Oi N Ne Ar He Si S Cl X",
          species="""n-heptane   Ar          He          Ne
                     N2          C2H4(2)     C4H8-1(3)   C4H8-2(4)
                     C4H6(7)     C6H8(9)     H2(68)      C8H10(113)
                     S(163)      S(181)      S(185)      S(189)
                     S(244)      S(264)      S(301)      C6H10(651)
                     C8H12(652)  S(655)      S(659)      S(937)""",
          reactions='gas-*',
          initial_state=state(temperature=300.0, pressure=OneAtm))

ideal_interface(name='surface1',
                elements="H D T C Ci O Oi N Ne Ar He Si S Cl X",
                species="""X(1)        HX(5)       C2H3X(37)   C4H5X(80)
                          C4H5X(81)   C6H9X(192)  SX(197)     SX(198)
                          SX(706)     SX(708)     SX(711)     SX(972)
                          SX(999)     SX(1011)""",
                site_density=2.72e-09,
                phases="gas",
          reactions='surface1-*',
                initial_state=state(temperature=300.0, pressure=OneAtm))

#-------------------------------------------------------------------------------
# Element data
#-------------------------------------------------------------------------------

element(symbol=u'X', atomic_mass=195.083)
element(symbol=u'Ci', atomic_mass=13.003)
element(symbol=u'D', atomic_mass=2.014)
element(symbol=u'Oi', atomic_mass=18.0)
element(symbol=u'T', atomic_mass=3.016)
#-------------------------------------------------------------------------------
# Species data
#-------------------------------------------------------------------------------

species(name=u'n-heptane',
        atoms='H:16 C:7',
        thermo=(NASA([100.00, 1262.75],
                     [-2.93512125E-03,  7.69375610E-02, -3.48031525E-05,
                       1.86160506E-09,  2.01550529E-12, -2.57829334E+04,
                       3.00312819E+01]),
                NASA([1262.75, 5000.00],
                     [ 1.38379971E+01,  4.85941816E-02, -1.95472819E-05,
                       3.52833289E-09, -2.39061569E-13, -3.05142526E+04,
                      -4.48654615E+01])))

species(name=u'Ar',
        atoms='Ar:1',
        thermo=(NASA([200.00, 1000.00],
                     [ 2.50000000E+00,  0.00000000E+00,  0.00000000E+00,
                       0.00000000E+00,  0.00000000E+00, -7.45375000E+02,
                       4.37967000E+00]),
                NASA([1000.00, 6000.00],
                     [ 2.50000000E+00,  0.00000000E+00,  0.00000000E+00,
                       0.00000000E+00,  0.00000000E+00, -7.45375000E+02,
                       4.37967000E+00])))

species(name=u'He',
        atoms='He:1',
        thermo=(NASA([200.00, 1000.00],
                     [ 2.50000000E+00,  0.00000000E+00,  0.00000000E+00,
                       0.00000000E+00,  0.00000000E+00, -7.45375000E+02,
                       9.28724000E-01]),
                NASA([1000.00, 6000.00],
                     [ 2.50000000E+00,  0.00000000E+00,  0.00000000E+00,
                       0.00000000E+00,  0.00000000E+00, -7.45375000E+02,
                       9.28724000E-01])))

species(name=u'Ne',
        atoms='Ne:1',
        thermo=(NASA([200.00, 1000.00],
                     [ 2.50000000E+00,  0.00000000E+00,  0.00000000E+00,
                       0.00000000E+00,  0.00000000E+00, -7.45375000E+02,
                       3.35532000E+00]),
                NASA([1000.00, 6000.00],
                     [ 2.50000000E+00,  0.00000000E+00,  0.00000000E+00,
                       0.00000000E+00,  0.00000000E+00, -7.45375000E+02,
                       3.35532000E+00])))

species(name=u'N2',
        atoms='N:2',
        thermo=(NASA([200.00, 1000.00],
                     [ 3.53101000E+00, -1.23661000E-04, -5.02999000E-07,
                       2.43531000E-09, -1.40881000E-12, -1.04698000E+03,
                       2.96747000E+00]),
                NASA([1000.00, 6000.00],
                     [ 2.95258000E+00,  1.39690000E-03, -4.92632000E-07,
                       7.86010000E-11, -4.60755000E-15, -9.23949000E+02,
                       5.87189000E+00])))

species(name=u'C2H4(2)',
        atoms='H:4 C:2',
        thermo=(NASA([100.00, 979.37],
                     [ 3.97469045E+00, -4.75813325E-03,  4.16772624E-05,
                      -4.51377676E-08,  1.54218287E-11,  4.91540855E+03,
                       3.62439976E+00]),
                NASA([979.37, 5000.00],
                     [ 3.55670229E+00,  1.10625819E-02, -4.17009559E-06,
                       7.85564219E-10, -5.70042086E-14,  4.32042473E+03,
                       2.17665377E+00])))

species(name=u'C4H8-1(3)',
        atoms='H:8 C:4',
        thermo=(NASA([100.00, 1007.28],
                     [ 2.58772978E+00,  2.32777883E-02,  1.93412653E-05,
                      -3.55496729E-08,  1.36906178E-11, -1.91872929E+03,
                       1.45750592E+01]),
                NASA([1007.28, 5000.00],
                     [ 7.20516863E+00,  2.36361619E-02, -9.03150325E-06,
                       1.65392736E-09, -1.16019318E-13, -3.79733809E+03,
                      -1.24426086E+01])))

species(name=u'C4H8-2(4)',
        atoms='H:8 C:4',
        thermo=(NASA([100.00, 1157.78],
                     [ 2.51999305E+00,  2.76811707E-02,  9.44135366E-07,
                      -1.25013222E-08,  4.67160311E-12, -3.34374810E+03,
                       1.30195268E+01]),
                NASA([1157.78, 5000.00],
                     [ 6.04218222E+00,  2.60073554E-02, -1.04844041E-05,
                       1.90882450E-09, -1.30601743E-13, -4.86273126E+03,
                      -7.52672501E+00])))

species(name=u'C4H6(7)',
        atoms='H:6 C:4',
        thermo=(NASA([100.00, 946.05],
                     [ 2.80594317E+00,  1.02590609E-02,  6.17237648E-05,
                      -9.01611778E-08,  3.59103084E-11,  1.16584993E+04,
                       1.20623208E+01]),
                NASA([946.05, 5000.00],
                     [ 1.24695345E+01,  1.00551088E-02, -2.41190446E-06,
                       4.57038145E-10, -3.93127871E-14,  8.01071120E+03,
                      -4.36383840E+01])))

species(name=u'C6H8(9)',
        atoms='H:8 C:6',
        thermo=(NASA([100.00, 941.22],
                     [ 1.38427839E+00,  4.14411676E-02,  1.94286778E-05,
                      -6.16687823E-08,  2.86503237E-11,  1.76317462E+04,
                       1.93257559E+01]),
                NASA([941.22, 5000.00],
                     [ 1.69619725E+01,  1.57221629E-02, -4.10117912E-06,
                       6.95735258E-10, -5.26520576E-14,  1.29061653E+04,
                      -6.44097805E+01])))

species(name=u'H2(68)',
        atoms='H:2',
        thermo=(NASA([100.00, 1959.08],
                     [ 3.43536411E+00,  2.12710383E-04, -2.78625110E-07,
                       3.40267219E-10, -7.76032129E-14, -1.03135984E+03,
                      -3.90841731E+00]),
                NASA([1959.08, 5000.00],
                     [ 2.78816619E+00,  5.87640475E-04,  1.59010635E-07,
                      -5.52739465E-11,  4.34311304E-15, -5.96144481E+02,
                       1.12730527E-01])))

species(name=u'C8H10(113)',
        atoms='H:10 C:8',
        thermo=(NASA([100.00, 941.39],
                     [ 8.64066480E-02,  6.59512573E-02,  1.48806368E-06,
                      -6.06834808E-08,  3.13832585E-11,  2.39088947E+04,
                       2.66194394E+01]),
                NASA([941.39, 5000.00],
                     [ 2.28419165E+01,  1.96702446E-02, -5.08789164E-06,
                       8.53647924E-10, -6.42353888E-14,  1.73909208E+04,
                      -9.36517408E+01])))

species(name=u'S(163)',
        atoms='H:14 C:10',
        thermo=(NASA([100.00, 1005.32],
                     [-8.70322223E-01,  8.89792357E-02, -2.38549264E-05,
                      -3.15632626E-08,  1.81666003E-11,  3.78335545E+04,
                       4.06086448E+01]),
                NASA([1005.32, 5000.00],
                     [ 2.02610245E+01,  4.45996440E-02, -1.68700098E-05,
                       3.08364483E-09, -2.16972845E-13,  3.15786859E+04,
                      -7.14274694E+01])))

species(name=u'S(181)',
        atoms='H:16 C:12',
        thermo=(NASA([100.00, 985.43],
                     [-1.88309559E+00,  1.07042782E-01, -2.70575175E-05,
                      -4.30521591E-08,  2.47769762E-11,  4.00783515E+04,
                       4.74622652E+01]),
                NASA([985.43, 5000.00],
                     [ 2.44924173E+01,  5.06802141E-02, -1.84364732E-05,
                       3.32429337E-09, -2.33628170E-13,  3.24184482E+04,
                      -9.18874447E+01])))

species(name=u'S(185)',
        atoms='H:16 C:12',
        thermo=(NASA([100.00, 992.46],
                     [-1.36729922E+00,  9.09281156E-02,  1.69886510E-05,
                      -8.53926708E-08,  3.84292138E-11,  2.11993211E+04,
                       3.87739443E+01]),
                NASA([992.46, 5000.00],
                     [ 2.42203013E+01,  5.14038229E-02, -1.94054924E-05,
                       3.62907015E-09, -2.61719468E-13,  1.29879994E+04,
                      -1.00258754E+02])))

species(name=u'S(189)',
        atoms='H:16 C:12',
        thermo=(NASA([100.00, 961.99],
                     [-1.50852807E+00,  8.75274060E-02,  4.32034076E-05,
                      -1.26037903E-07,  5.63829678E-11,  3.17300027E+04,
                       4.22627583E+01]),
                NASA([961.99, 5000.00],
                     [ 2.93799895E+01,  4.15639304E-02, -1.37227082E-05,
                       2.52923792E-09, -1.88109874E-13,  2.19709778E+04,
                      -1.25394020E+02])))

species(name=u'S(244)',
        atoms='H:16 C:12',
        thermo=(NASA([100.00, 1082.71],
                     [-1.42164116E+00,  1.00365877E-01, -2.86684073E-05,
                      -2.45437346E-08,  1.37137557E-11,  2.67269125E+04,
                       3.45500457E+01]),
                NASA([1082.71, 5000.00],
                     [ 1.94955705E+01,  6.02183210E-02, -2.44875841E-05,
                       4.55574638E-09, -3.18940186E-13,  2.00211805E+04,
                      -7.80757961E+01])))

species(name=u'S(264)',
        atoms='H:16 C:12',
        thermo=(NASA([100.00, 967.86],
                     [-1.32199649E+00,  8.47366715E-02,  4.59829753E-05,
                      -1.23787643E-07,  5.42522776E-11,  2.23199242E+04,
                       3.57017535E+01]),
                NASA([967.86, 5000.00],
                     [ 2.71808180E+01,  4.57703342E-02, -1.58004061E-05,
                       2.92353835E-09, -2.14852771E-13,  1.31103467E+04,
                      -1.19950987E+02])))

species(name=u'S(301)',
        atoms='H:15 C:12',
        thermo=(NASA([100.00, 993.54],
                     [-1.21349642E+00,  8.43530083E-02,  3.95096269E-05,
                      -1.09216753E-07,  4.65588077E-11,  3.07992516E+04,
                       3.58640121E+01]),
                NASA([993.54, 5000.00],
                     [ 2.48583690E+01,  5.15637781E-02, -1.99548015E-05,
                       3.80145327E-09, -2.77625408E-13,  2.20562124E+04,
                      -1.07676237E+02])))

species(name=u'C6H10(651)',
        atoms='H:10 C:6',
        thermo=(NASA([100.00, 1020.64],
                     [ 9.97407792E-01,  5.59779371E-02, -2.05888747E-05,
                      -1.17171796E-08,  8.13407747E-12,  6.30749940E+03,
                       2.38942539E+01]),
                NASA([1020.64, 5000.00],
                     [ 1.33829093E+01,  2.83659778E-02, -1.07662265E-05,
                       1.95747034E-09, -1.36587777E-13,  2.68923113E+03,
                      -4.14516757E+01])))

species(name=u'C8H12(652)',
        atoms='H:12 C:8',
        thermo=(NASA([100.00, 1002.94],
                     [ 1.69470520E-02,  7.28189610E-02, -2.16586522E-05,
                      -2.40806705E-08,  1.44596580E-11,  1.38562448E+04,
                       3.07679147E+01]),
                NASA([1002.94, 5000.00],
                     [ 1.77276964E+01,  3.45993664E-02, -1.29781749E-05,
                       2.37499951E-09, -1.67643382E-13,  8.67334297E+03,
                      -6.28559833E+01])))

species(name=u'S(655)',
        atoms='H:14 C:10',
        thermo=(NASA([100.00, 988.70],
                     [-1.28102806E+00,  9.73401841E-02, -3.96908232E-05,
                      -2.28884425E-08,  1.70599444E-11,  2.01333918E+04,
                       3.80613708E+01]),
                NASA([988.70, 5000.00],
                     [ 2.35618038E+01,  3.86218886E-02, -1.40063844E-05,
                       2.54246881E-09, -1.80004120E-13,  1.31784898E+04,
                      -9.18377394E+01])))

species(name=u'S(659)',
        atoms='H:14 C:10',
        thermo=(NASA([100.00, 986.05],
                     [-1.44907146E+00,  1.01424649E-01, -4.84835626E-05,
                      -1.57995520E-08,  1.50678338E-11,  1.99508928E+04,
                       3.67659087E+01]),
                NASA([986.05, 5000.00],
                     [ 2.42858653E+01,  3.77393729E-02, -1.35337167E-05,
                       2.44097454E-09, -1.72313265E-13,  1.28965429E+04,
                      -9.70645225E+01])))

species(name=u'S(937)',
        atoms='H:16 C:12',
        thermo=(NASA([100.00, 992.70],
                     [-2.16826062E+00,  1.13501209E-01, -4.18958791E-05,
                      -3.03496037E-08,  2.07528425E-11,  4.41106991E+04,
                       4.79018967E+01]),
                NASA([992.70, 5000.00],
                     [ 2.60889820E+01,  4.86320920E-02, -1.79037270E-05,
                       3.25237817E-09, -2.29436135E-13,  3.60865913E+04,
                      -1.00374270E+02])))

species(name=u'X(1)',
        atoms='X:1',
        thermo=(NASA([100.00, 1554.81],
                     [ 7.10134880E-03, -4.25615041E-05,  8.98521156E-08,
                      -7.80182565E-11,  2.32462166E-14, -8.76099414E-01,
                      -3.11209498E-02]),
                NASA([1554.81, 5000.00],
                     [ 1.60301287E-01, -2.52237396E-04,  1.14182282E-07,
                      -1.21473809E-11,  3.85806589E-16, -7.08108147E+01,
                      -9.09535600E-01])))

species(name=u'HX(5)',
        atoms='H:1 X:1',
        thermo=(NASA([100.00, 952.91],
                     [-3.80957846E-01,  5.47219393E-03,  2.60946928E-06,
                      -9.65008412E-09,  4.63967474E-12, -7.97198060E+03,
                       1.01722845E+00]),
                NASA([952.91, 5000.00],
                     [ 2.80337105E+00, -5.41002993E-04,  4.99482316E-07,
                      -7.54902555E-11,  3.06721398E-15, -8.91271918E+03,
                      -1.59435356E+01])))

species(name=u'C2H3X(37)',
        atoms='H:3 C:2 X:1',
        thermo=(NASA([100.00, 928.60],
                     [ 3.83104022E+00, -8.76542826E-03,  6.98017027E-05,
                      -8.68052566E-08,  3.33256145E-11,  5.22669649E+03,
                      -1.81156365E+01]),
                NASA([928.60, 5000.00],
                     [ 8.78015372E+00,  1.92565992E-03,  8.25424482E-07,
                      -1.63654020E-10,  5.70926320E-15,  2.92745847E+03,
                      -4.90566656E+01])))

species(name=u'C4H5X(80)',
        atoms='H:5 C:4 X:1',
        thermo=(NASA([100.00, 936.52],
                     [ 2.68471814E+00,  1.36244384E-02,  5.32592262E-05,
                      -8.32913017E-08,  3.41499632E-11,  7.31993217E+03,
                      -1.06510519E+01]),
                NASA([936.52, 5000.00],
                     [ 1.29012238E+01,  8.96922349E-03, -1.71920361E-06,
                       2.89745198E-10, -2.58686934E-14,  3.69689442E+03,
                      -6.83963240E+01])))

species(name=u'C4H5X(81)',
        atoms='H:5 C:4 X:1',
        thermo=(NASA([100.00, 928.62],
                     [ 2.64239936E+00,  8.31017311E-03,  8.12180670E-05,
                      -1.21403473E-07,  4.98652517E-11,  1.25028378E+04,
                      -1.03935602E+01]),
                NASA([928.62, 5000.00],
                     [ 1.69488231E+01,  2.00857887E-03,  2.03445917E-06,
                      -4.02602194E-10,  1.85354193E-14,  7.46043792E+03,
                      -9.11978215E+01])))

species(name=u'C6H9X(192)',
        atoms='H:9 C:6 X:1',
        thermo=(NASA([100.00, 995.65],
                     [ 1.00156767E+00,  5.37833423E-02, -1.05083627E-05,
                      -2.52890803E-08,  1.36191022E-11,  1.40047083E+04,
                       4.73933245E+00]),
                NASA([995.65, 5000.00],
                     [ 1.48280231E+01,  2.56880474E-02, -9.53960436E-06,
                       1.75503504E-09, -1.24934189E-13,  9.89075933E+03,
                      -6.87382183E+01])))

species(name=u'SX(197)',
        atoms='H:11 C:8 X:1',
        thermo=(NASA([100.00, 970.37],
                     [ 5.31888753E-02,  6.71974460E-02,  4.47967233E-06,
                      -5.81686632E-08,  2.81729684E-11,  1.37709643E+04,
                       9.58549953E+00]),
                NASA([970.37, 5000.00],
                     [ 2.04532044E+01,  2.99984680E-02, -1.05050701E-05,
                       1.92654254E-09, -1.39849888E-13,  7.60410438E+03,
                      -9.95950068E+01])))

species(name=u'SX(198)',
        atoms='H:11 C:8 X:1',
        thermo=(NASA([100.00, 978.48],
                     [-2.03188329E-01,  8.00305306E-02, -4.14445305E-05,
                      -6.30400942E-09,  9.29379931E-12,  2.05135699E+04,
                       9.78673596E+00]),
                NASA([978.48, 5000.00],
                     [ 1.79003685E+01,  3.33652588E-02, -1.18215599E-05,
                       2.07054535E-09, -1.42297671E-13,  1.56619046E+04,
                      -8.38469130E+01])))

species(name=u'SX(706)',
        atoms='H:11 C:8 X:1',
        thermo=(NASA([100.00, 970.37],
                     [ 5.31888753E-02,  6.71974460E-02,  4.47967233E-06,
                      -5.81686632E-08,  2.81729684E-11,  1.37709643E+04,
                       9.58549953E+00]),
                NASA([970.37, 5000.00],
                     [ 2.04532044E+01,  2.99984680E-02, -1.05050701E-05,
                       1.92654254E-09, -1.39849888E-13,  7.60410438E+03,
                      -9.95950068E+01])))

species(name=u'SX(708)',
        atoms='H:11 C:8 X:1',
        thermo=(NASA([100.00, 971.40],
                     [ 1.41381563E-02,  6.90601464E-02, -2.81816593E-06,
                      -5.01496480E-08,  2.53089095E-11,  1.32314903E+04,
                       7.57444528E+00]),
                NASA([971.40, 5000.00],
                     [ 2.02696948E+01,  2.98290181E-02, -1.04553389E-05,
                       1.90870667E-09, -1.37813194E-13,  7.21197012E+03,
                      -1.00287380E+02])))

species(name=u'SX(711)',
        atoms='H:11 C:8 X:1',
        thermo=(NASA([100.00, 962.25],
                     [-2.36809030E-02,  6.79479401E-02,  5.43927119E-06,
                      -6.22121258E-08,  3.04405256E-11,  1.43477555E+04,
                       7.63963110E+00]),
                NASA([962.25, 5000.00],
                     [ 2.16695172E+01,  2.75463981E-02, -9.17246115E-06,
                       1.66770016E-09, -1.22177011E-13,  7.86846214E+03,
                      -1.08156892E+02])))

species(name=u'SX(972)',
        atoms='H:11 C:8 X:1',
        thermo=(NASA([100.00, 1054.52],
                     [ 9.24766229E-02,  7.30389347E-02, -3.01362785E-05,
                      -1.01291856E-08,  8.20786822E-12,  1.58082679E+04,
                       8.19855900E+00]),
                NASA([1054.52, 5000.00],
                     [ 1.61726836E+01,  3.71410136E-02, -1.47733153E-05,
                       2.72795371E-09, -1.90937222E-13,  1.10214610E+04,
                      -7.68491962E+01])))

species(name=u'SX(999)',
        atoms='H:11 C:8 X:1',
        thermo=(NASA([100.00, 962.38],
                     [ 8.45069892E-02,  6.47446189E-02,  1.48977118E-05,
                      -7.13211228E-08,  3.34363738E-11,  1.31730753E+04,
                       1.32646517E+01]),
                NASA([962.38, 5000.00],
                     [ 2.13382535E+01,  2.84075644E-02, -9.51706362E-06,
                       1.73791617E-09, -1.27638402E-13,  6.67412860E+03,
                      -1.00968625E+02])))

species(name=u'SX(1011)',
        atoms='H:11 C:8 X:1',
        thermo=(NASA([100.00, 1018.49],
                     [ 7.35950350E-02,  7.17317096E-02, -2.13473587E-05,
                      -2.26300689E-08,  1.34027968E-11,  1.69236952E+04,
                       8.19411542E+00]),
                NASA([1018.49, 5000.00],
                     [ 1.73280384E+01,  3.52579279E-02, -1.37142817E-05,
                       2.53870296E-09, -1.79524544E-13,  1.17860541E+04,
                      -8.33321247E+01])))

#-------------------------------------------------------------------------------
# Reaction data
#-------------------------------------------------------------------------------
#  Reaction index: Chemkin #1; RMG #313
#  Template reaction: 1,4_Linear_birad_scission
#  Flux pairs: S(181), C6H8(9); S(181), C6H8(9);
#  Exact match found for rate rule [RJJ]
#  Euclidian distance = 0
#  family: 1,4_Linear_birad_scission

# Reaction 1
reaction('S(181) <=> C6H8(9) + C6H8(9)', [5.000000e+12, 0.0, 0.0],
         id='gas-1')
#  Reaction index: Chemkin #2; RMG #318
#  Template reaction: Diels_alder_addition
#  Flux pairs: C6H8(9), S(185); C6H8(9), S(185);
#  Estimated using an average for rate rule [diene_out;diene_in_2H;ene_HDe_2H]
#  Euclidian distance = 0
#  Multiplied by reaction path degeneracy 4.0
#  family: Diels_alder_addition

# Reaction 2
reaction('C6H8(9) + C6H8(9) <=> S(185)', [1.205866e+10, 0.0, 22.255],
         id='gas-2')
#  Reaction index: Chemkin #3; RMG #409
#  Template reaction: Birad_recombination
#  Flux pairs: S(181), S(185);
#  Estimated using template [R6_SSSDS;C_rad_out_H/OneDe;Cpri_rad_out_single] for rate rule [R6_SSSDS;C_rad_out_H/OneDe;Cpri_rad_out_H/OneDe]
#  Euclidian distance = 2.0
#  Multiplied by reaction path degeneracy 2.0
#  family: Birad_recombination

# Reaction 3
reaction('S(181) <=> S(185)', [4.000000e+12, 0.0, 1.8],
         id='gas-3')
#  Reaction index: Chemkin #4; RMG #403
#  Template reaction: Birad_recombination
#  Flux pairs: S(181), S(264);
#  Estimated using template [Rn;C_rad_out_H/OneDe;Cpri_rad_out_2H] for rate rule [R8;C_rad_out_H/OneDe;Cpri_rad_out_2H]
#  Euclidian distance = 1.0
#  Multiplied by reaction path degeneracy 2.0
#  family: Birad_recombination

# Reaction 4
reaction('S(181) <=> S(264)', [4.000000e+12, 0.0, 1.8],
         id='gas-4')
#  Reaction index: Chemkin #5; RMG #381
#  Template reaction: Birad_recombination
#  Flux pairs: S(181), S(244);
#  Estimated using template [Rn;C_rad_out_H/OneDe;Cpri_rad_out_single] for rate rule [R8;C_rad_out_H/OneDe;Cpri_rad_out_H/OneDe]
#  Euclidian distance = 2.2360679775
#  family: Birad_recombination

# Reaction 5
reaction('S(181) <=> S(244)', [2.000000e+12, 0.0, 1.8],
         id='gas-5')
#  Reaction index: Chemkin #6; RMG #1051
#  Template reaction: 6_membered_central_C-C_shift
#  Flux pairs: S(244), S(264);
#  Estimated using template [1_5_unsaturated_hexane] for rate rule [1_5_hexadiene]
#  Euclidian distance = 1.0
#  Multiplied by reaction path degeneracy 2.0
#  family: 6_membered_central_C-C_shift

# Reaction 6
reaction('S(244) <=> S(264)', [1.242368e+11, 0.288, 35.146],
         id='gas-6')
#  Reaction index: Chemkin #7; RMG #285
#  Template reaction: 1,4_Linear_birad_scission
#  Flux pairs: S(163), C6H8(9); S(163), C4H6(7);
#  Exact match found for rate rule [RJJ]
#  Euclidian distance = 0
#  family: 1,4_Linear_birad_scission

# Reaction 7
reaction('S(163) <=> C4H6(7) + C6H8(9)', [5.000000e+12, 0.0, 0.0],
         id='gas-7')
#  Reaction index: Chemkin #8; RMG #3320
#  Template reaction: 1,4_Linear_birad_scission
#  Flux pairs: S(937), C8H10(113); S(937), C4H6(7);
#  Exact match found for rate rule [RJJ]
#  Euclidian distance = 0
#  family: 1,4_Linear_birad_scission

# Reaction 8
reaction('S(937) <=> C4H6(7) + C8H10(113)', [5.000000e+12, 0.0, 0.0],
         id='gas-8')
#  Reaction index: Chemkin #9; RMG #323
#  Template reaction: 2+2_cycloaddition_Cd
#  Flux pairs: C6H8(9), S(189); C6H8(9), S(189);
#  Estimated using template [db;doublebond] for rate rule [db_2H_HDe;mb_db_2H_HDe]
#  Euclidian distance = 5.0
#  Multiplied by reaction path degeneracy 2.0
#  family: 2+2_cycloaddition_Cd

# Reaction 9
reaction('C6H8(9) + C6H8(9) <=> S(189)', [1.384000e+11, 0.0, 43.72],
         id='gas-9')
#  Reaction index: Chemkin #10; RMG #412
#  Template reaction: Birad_recombination
#  Flux pairs: S(181), S(189);
#  Estimated using average of templates [Rn;C_rad_out_H/OneDe;Cpri_rad_out_single] + [R4_SSS;C_rad_out_single;Cpri_rad_out_single] for rate rule
#  [R4_SSS;C_rad_out_H/OneDe;Cpri_rad_out_H/OneDe]
#  Euclidian distance = 2.82842712475
#  family: Birad_recombination

# Reaction 10
reaction('S(181) <=> S(189)', [1.800000e+12, -0.152, 1.89],
         id='gas-10')
#  Reaction index: Chemkin #11; RMG #1659
#  Template reaction: 6_membered_central_C-C_shift
#  Flux pairs: S(189), S(244);
#  Estimated using template [1_5_unsaturated_hexane] for rate rule [1_5_hexadiene]
#  Euclidian distance = 1.0
#  family: 6_membered_central_C-C_shift

# Reaction 11
reaction('S(189) <=> S(244)', [6.211841e+10, 0.288, 35.146],
         id='gas-11')
#  Reaction index: Chemkin #1; RMG #36
#  Template reaction: Surface_Adsorption_Dissociative
#  Flux pairs: C2H4(2), C2H3X(37); C2H4(2), HX(5);
#  Exact match found for rate rule [C-H;VacantSite1;VacantSite2]
#  Euclidian distance = 0
#  Multiplied by reaction path degeneracy 4.0
#  family: Surface_Adsorption_Dissociative

# surface1 Reaction 1
surface_reaction('C2H4(2) + X(1) + X(1) <=> HX(5) + C2H3X(37)', stick(1.240000e-04, 0.0, 6.4),
                 id='surface1-1')
#  Reaction index: Chemkin #2; RMG #104
#  Template reaction: Surface_Adsorption_Dissociative
#  Flux pairs: C4H6(7), C2H3X(37); C4H6(7), C2H3X(37);
#  Exact match found for rate rule [C-C;VacantSite1;VacantSite2]
#  Euclidian distance = 0
#  family: Surface_Adsorption_Dissociative

# surface1 Reaction 2
surface_reaction('X(1) + X(1) + C4H6(7) <=> C2H3X(37) + C2H3X(37)', stick(6.595000e-04, 0.0, 9.0),
                 id='surface1-2')
#  Reaction index: Chemkin #3; RMG #115
#  Template reaction: Surface_Adsorption_Dissociative
#  Flux pairs: C4H6(7), C4H5X(81); C4H6(7), HX(5);
#  Exact match found for rate rule [C-H;VacantSite1;VacantSite2]
#  Euclidian distance = 0
#  Multiplied by reaction path degeneracy 4.0
#  family: Surface_Adsorption_Dissociative

# surface1 Reaction 3
surface_reaction('X(1) + X(1) + C4H6(7) <=> HX(5) + C4H5X(81)', stick(1.240000e-04, 0.0, 6.4),
                 id='surface1-3')
#  Reaction index: Chemkin #4; RMG #179
#  Template reaction: Surface_Adsorption_Dissociative
#  Flux pairs: C6H8(9), C4H5X(81); C6H8(9), C2H3X(37);
#  Exact match found for rate rule [C-C;VacantSite1;VacantSite2]
#  Euclidian distance = 0
#  Multiplied by reaction path degeneracy 2.0
#  family: Surface_Adsorption_Dissociative

# surface1 Reaction 4
surface_reaction('X(1) + X(1) + C6H8(9) <=> C2H3X(37) + C4H5X(81)', stick(1.319000e-03, 0.0, 9.0),
                 id='surface1-4')
#  Reaction index: Chemkin #5; RMG #114
#  Template reaction: Surface_Adsorption_Dissociative
#  Flux pairs: C4H6(7), C4H5X(80); C4H6(7), HX(5);
#  Exact match found for rate rule [C-H;VacantSite1;VacantSite2]
#  Euclidian distance = 0
#  Multiplied by reaction path degeneracy 2.0
#  family: Surface_Adsorption_Dissociative

# surface1 Reaction 5
surface_reaction('X(1) + X(1) + C4H6(7) <=> HX(5) + C4H5X(80)', stick(6.200000e-05, 0.0, 6.4),
                 id='surface1-5')
#  Reaction index: Chemkin #6; RMG #172
#  Template reaction: Surface_Migration
#  Flux pairs: C4H5X(81), C4H5X(80);
#  Exact match found for rate rule [*C]
#  Euclidian distance = 0
#  family: Surface_Migration

# surface1 Reaction 6
surface_reaction('C4H5X(81) <=> C4H5X(80)', [7.336000e+12, 0.0, 14.18],
                 id='surface1-6')
#  Reaction index: Chemkin #7; RMG #331
#  Template reaction: Surface_EleyRideal_Addition_Multiple_Bond
#  Flux pairs: C2H4(2), C6H9X(192); C4H5X(80), C6H9X(192);
#  Estimated using template [*C;R=R] for rate rule [*C;C=C]
#  Euclidian distance = 1.0
#  Multiplied by reaction path degeneracy 2.0
#  family: Surface_EleyRideal_Addition_Multiple_Bond

# surface1 Reaction 7
surface_reaction('C2H4(2) + C4H5X(80) <=> C6H9X(192)', stick(1.000000e-01, 0.0, 16.41),
                 id='surface1-7')
#  Reaction index: Chemkin #8; RMG #2024
#  Template reaction: Surface_Adsorption_Dissociative
#  Flux pairs: C8H12(652), C6H9X(192); C8H12(652), C2H3X(37);
#  Exact match found for rate rule [C-C;VacantSite1;VacantSite2]
#  Euclidian distance = 0
#  family: Surface_Adsorption_Dissociative

# surface1 Reaction 8
surface_reaction('X(1) + X(1) + C8H12(652) <=> C2H3X(37) + C6H9X(192)', stick(6.595000e-04, 0.0, 12.185),
                 id='surface1-8')
#  Reaction index: Chemkin #9; RMG #2031
#  Template reaction: Surface_Adsorption_Dissociative
#  Flux pairs: S(659), C6H9X(192); S(659), C4H5X(80);
#  Exact match found for rate rule [C-C;VacantSite1;VacantSite2]
#  Euclidian distance = 0
#  Multiplied by reaction path degeneracy 2.0
#  family: Surface_Adsorption_Dissociative

# surface1 Reaction 9
surface_reaction('X(1) + X(1) + S(659) <=> C6H9X(192) + C4H5X(80)', stick(1.319000e-03, 0.0, 9.0),
                 id='surface1-9')
#  Reaction index: Chemkin #10; RMG #96
#  Template reaction: Surface_Adsorption_Dissociative
#  Flux pairs: H2(68), HX(5); H2(68), HX(5);
#  Exact match found for rate rule [H-H;VacantSite1;VacantSite2]
#  Euclidian distance = 0