units(length='cm', time='s', quantity='mol', act_energy='kcal/mol')

ideal_gas(name='gas',
          elements="H D T C Ci O Oi N Ne Ar He Si S Cl X",
          species="""n-heptane   Ar          He          Ne
                     N2          C2H4(2)     C4H8-1(3)   C4H8-2(4)
                     C4H6(7)     H2(68)      C4H6a(79)   C6H10d(84)
                     C6H10(133)  C8H12(134)  C8H12(182)  C6H10(301)
                     S(345)      S(376)      S(703)      S(710)
                     C8H14(720)  S(1664)     C2H6(1758)  S(1797)
                     CH4(1879)   S(2082)     S(2249)     C4H8(4058)
                     S(4086)""",
          reactions='gas-*',
          transport='Mix',
          initial_state=state(temperature=300.0, pressure=OneAtm))

ideal_interface(name='surface1',
                elements="H D T C Ci O Oi N Ne Ar He Si S Cl X",
                species="""X(1)        HX(5)       C2H3X(37)   CH3X(39)
                          C2H5X(40)   C4H7X(41)   C4H7X(42)   C4H7X(43)
                          C4H7X(44)   C2H2X(70)   C4H5X(80)   C4H5X(81)
                          C6H9X(98)   C6H9X(115)  SX(120)     SX(121)
                          C6H9X(124)  CH2X(126)   C5H7X(127)  SX(185)
                          SX(187)     SX(190)     C6H9X(302)  C6H9X(303)
                          C6H9X(304)  SX(405)     SX(432)     SX(444)
                          SX(445)     SX(446)     SX(448)     SX(491)
                          SX(492)     C5H6X(494)  SX(496)     SX(501)
                          SX(502)     SX(506)     C5H7X(508)  SX(521)
                          C5H7X(523)  SX(525)     SX(526)     SX(527)
                          SX(528)     SX(532)     SX(533)     SX(537)
                          SX(538)     SX(541)     C6H9X(550)  C6H9X(569)
                          C6H9X(570)  C6H9X(571)  SX(578)     SX(579)
                          C6H9X(629)  C4H6X(632)  C6H8X(633)  SX(634)
                          SX(640)     SX(641)     SX(645)     SX(646)
                          SX(647)     SX(648)     C6H9X(655)  C6H9X(656)
                          C4H7X(658)  SX(663)     SX(664)     SX(698)
                          SX(705)     SX(712)     SX(789)     SX(796)
                          SX(809)     SX(810)     SX(818)     SX(825)
                          SX(836)     SX(837)     SX(843)     SX(856)
                          SX(865)     SX(871)     SX(872)     SX(879)
                          SX(880)     SX(889)     SX(929)     SX(932)
                          SX(934)     SX(1018)    SX(1019)    SX(1203)
                          SX(1210)    SX(1211)    SX(1212)    SX(1213)
                          SX(1214)    SX(1221)    SX(1222)    SX(1231)
                          SX(1232)    SX(1233)    SX(1241)    SX(1242)
                          SX(1243)    SX(1251)    SX(1252)    SX(1262)
                          SX(1263)    SX(1283)    SX(1284)    SX(1298)
                          SX(1299)    SX(1308)    SX(1309)    SX(1310)
                          SX(1318)    SX(1319)    SX(1320)    SX(1330)
                          SX(1331)    SX(1339)    SX(1354)    SX(1355)
                          SX(1356)    SX(1368)    SX(1369)    SX(1370)
                          SX(1381)    SX(1382)    SX(1395)    SX(1408)
                          SX(1409)    SX(1419)    SX(1424)    SX(1425)
                          SX(1434)    SX(1435)    SX(1441)    SX(1449)
                          SX(1455)    SX(1456)    SX(1491)    SX(1515)
                          SX(1516)    SX(1540)    SX(1553)    SX(1554)
                          SX(1575)    SX(1576)    SX(1620)    SX(1621)
                          SX(1880)    SX(1958)    SX(2057)    SX(2156)
                          SX(2157)    SX(2191)    SX(2226)    SX(2393)
                          SX(2429)    SX(2517)    SX(2518)    SX(2521)
                          SX(2526)    SX(2527)    SX(2535)    SX(2536)
                          SX(2587)    SX(2594)    SX(2606)    SX(2607)
                          SX(2841)    SX(2842)    SX(2890)    SX(2893)
                          SX(2894)    SX(2899)    SX(2900)    SX(2941)
                          SX(2948)    SX(2960)    SX(2961)    CHX(3114)
                          SX(3125)    SX(3131)    SX(3142)    SX(3541)
                          SX(3553)    SX(4054)    SX(4653)    SX(4695)
                          SX(4791)    SX(4799)    SX(4804)    SX(4821)
                          SX(4828)    SX(4829)    SX(4830)    SX(4852)
                          SX(4873)    SX(4893)""",
                site_density=2.72e-09,
                phases="gas",
          reactions='surface1-*',
                initial_state=state(temperature=300.0, pressure=OneAtm))

#-------------------------------------------------------------------------------
# Element data
#-------------------------------------------------------------------------------

element(symbol=u'X', atomic_mass=195.083)
element(symbol=u'Ci', atomic_mass=13.003)
element(symbol=u'D', atomic_mass=2.014)
element(symbol=u'Oi', atomic_mass=18.0)
element(symbol=u'T', atomic_mass=3.016)
#-------------------------------------------------------------------------------
# Species data
#-------------------------------------------------------------------------------

species(name=u'n-heptane',
        atoms='H:16 C:7',
        thermo=(NASA([100.00, 1262.73],
                     [-2.91681405E-03,  7.69373649E-02, -3.48025563E-05,
                       1.86095180E-09,  2.01573617E-12, -2.57829342E+04,
                       3.00312148E+01]),
                NASA([1262.73, 5000.00],
                     [ 1.38377915E+01,  4.85945016E-02, -1.95474548E-05,
                       3.52837178E-09, -2.39064676E-13, -3.05141556E+04,
                      -4.48642836E+01])),
        transport=gas_transport(geom='nonlinear',
                                diam=6.366,
                                well_depth=402.997))

species(name=u'Ar',
        atoms='Ar:1',
        thermo=(NASA([200.00, 1000.00],
                     [ 2.50000000E+00,  0.00000000E+00,  0.00000000E+00,
                       0.00000000E+00,  0.00000000E+00, -7.45375000E+02,
                       4.37967000E+00]),
                NASA([1000.00, 6000.00],
                     [ 2.50000000E+00,  0.00000000E+00,  0.00000000E+00,
                       0.00000000E+00,  0.00000000E+00, -7.45375000E+02,
                       4.37967000E+00])),
        transport=gas_transport(geom='atom',
                                diam=3.33,
                                well_depth=136.5))

species(name=u'He',
        atoms='He:1',
        thermo=(NASA([200.00, 1000.00],
                     [ 2.50000000E+00,  0.00000000E+00,  0.00000000E+00,
                       0.00000000E+00,  0.00000000E+00, -7.45375000E+02,
                       9.28724000E-01]),
                NASA([1000.00, 6000.00],
                     [ 2.50000000E+00,  0.00000000E+00,  0.00000000E+00,
                       0.00000000E+00,  0.00000000E+00, -7.45375000E+02,
                       9.28724000E-01])),
        transport=gas_transport(geom='atom',
                                diam=2.576,
                                well_depth=10.2))

species(name=u'Ne',
        atoms='Ne:1',
        thermo=(NASA([200.00, 1000.00],
                     [ 2.50000000E+00,  0.00000000E+00,  0.00000000E+00,
                       0.00000000E+00,  0.00000000E+00, -7.45375000E+02,
                       3.35532000E+00]),
                NASA([1000.00, 6000.00],
                     [ 2.50000000E+00,  0.00000000E+00,  0.00000000E+00,
                       0.00000000E+00,  0.00000000E+00, -7.45375000E+02,
                       3.35532000E+00])),
        transport=gas_transport(geom='atom',
                                diam=3.758,
                                well_depth=148.6))

species(name=u'N2',
        atoms='N:2',
        thermo=(NASA([200.00, 1000.00],
                     [ 3.53101000E+00, -1.23661000E-04, -5.02999000E-07,
                       2.43531000E-09, -1.40881000E-12, -1.04698000E+03,
                       2.96747000E+00]),
                NASA([1000.00, 6000.00],
                     [ 2.95258000E+00,  1.39690000E-03, -4.92632000E-07,
                       7.86010000E-11, -4.60755000E-15, -9.23949000E+02,
                       5.87189000E+00])),
        transport=gas_transport(geom='linear',
                                diam=3.621,
                                well_depth=97.53,
                                polar=1.76,
                                rot_relax=4.0))

species(name=u'C2H4(2)',
        atoms='H:4 C:2',
        thermo=(NASA([100.00, 979.36],
                     [ 3.97471606E+00, -4.75844285E-03,  4.16783770E-05,
                      -4.51392516E-08,  1.54224761E-11,  4.91540746E+03,
                       3.62430844E+00]),
                NASA([979.36, 5000.00],
                     [ 3.55660610E+00,  1.10627464E-02, -4.17019079E-06,
                       7.85586770E-10, -5.70060829E-14,  4.32046489E+03,
                       2.17719479E+00])),
        transport=gas_transport(geom='nonlinear',
                                diam=3.971,
                                well_depth=280.8,
                                rot_relax=1.5))

species(name=u'C4H8-1(3)',
        atoms='H:8 C:4',
        thermo=(NASA([100.00, 1007.28],
                     [ 2.58772906E+00,  2.32777969E-02,  1.93412349E-05,
                      -3.55496333E-08,  1.36906009E-11, -1.91872926E+03,
                       1.45750618E+01]),
                NASA([1007.28, 5000.00],
                     [ 7.20517168E+00,  2.36361568E-02, -9.03150028E-06,
                       1.65392666E-09, -1.16019260E-13, -3.79733937E+03,
                      -1.24426257E+01])),
        transport=gas_transport(geom='nonlinear',
                                diam=5.176,
                                well_depth=357.002,
                                rot_relax=1.0))

species(name=u'C4H8-2(4)',
        atoms='H:8 C:4',
        thermo=(NASA([100.00, 1157.79],
                     [ 2.51998327E+00,  2.76812799E-02,  9.43783469E-07,
                      -1.25009101E-08,  4.67144666E-12, -3.34374767E+03,
                       1.30195623E+01]),
                NASA([1157.79, 5000.00],
                     [ 6.04225708E+00,  2.60072350E-02, -1.04843374E-05,
                       1.90880922E-09, -1.30600505E-13, -4.86276511E+03,
                      -7.52715109E+00])),
        transport=gas_transport(geom='nonlinear',
                                diam=5.289,
                                well_depth=359.053))

species(name=u'C4H6(7)',
        atoms='H:6 C:4',
        thermo=(NASA([100.00, 946.05],
                     [ 2.80599310E+00,  1.02584471E-02,  6.17260255E-05,
                      -9.01642687E-08,  3.59116961E-11,  1.16584972E+04,
                       1.20621434E+01]),
                NASA([946.05, 5000.00],
                     [ 1.24693720E+01,  1.00553901E-02, -2.41206872E-06,
                       4.57077303E-10, -3.93160571E-14,  8.01077795E+03,
                      -4.36374720E+01])),
        transport=gas_transport(geom='nonlinear',
                                diam=5.18,
                                well_depth=357.002,
                                rot_relax=1.0))

species(name=u'H2(68)',
        atoms='H:2',
        thermo=(NASA([100.00, 1959.08],
                     [ 3.43536412E+00,  2.12710353E-04, -2.78625043E-07,
                       3.40267167E-10, -7.76031998E-14, -1.03135984E+03,
                      -3.90841732E+00]),
                NASA([1959.08, 5000.00],
                     [ 2.78816583E+00,  5.87640942E-04,  1.59010417E-07,
                      -5.52739026E-11,  4.34310984E-15, -5.96144270E+02,
                       1.12732655E-01])),
        transport=gas_transport(geom='linear',
                                diam=2.833,
                                well_depth=59.7))

species(name=u'C4H6a(79)',
        atoms='H:6 C:4',
        thermo=(NASA([100.00, 950.38],
                     [ 3.41327601E+00, -4.60830638E-03,  9.57205603E-05,
                      -1.18800574E-07,  4.44495312E-11,  1.74039828E+04,
                       1.01517556E+01]),
                NASA([950.38, 5000.00],
                     [ 9.72156091E+00,  1.36879055E-02, -3.93842260E-06,
                       7.58710118E-10, -6.16013131E-14,  1.41795804E+04,
                      -3.06164436E+01])),
        transport=gas_transport(geom='nonlinear',
                                diam=5.503,
                                well_depth=381.31))

species(name=u'C6H10d(84)',
        atoms='H:10 C:6',
        thermo=(NASA([100.00, 969.70],
                     [ 2.39493639E+00,  1.31308716E-02,  1.02019898E-04,
                      -1.35266841E-07,  5.06735576E-11, -2.55363631E+03,
                       1.63461006E+01]),
                NASA([969.70, 5000.00],
                     [ 1.20193596E+01,  2.96991246E-02, -1.06504175E-05,
                       2.03502649E-09, -1.52378829E-13, -7.06570658E+03,
                      -4.34309725E+01])),
        transport=gas_transport(geom='nonlinear',
                                diam=6.352,
                                well_depth=436.658))

species(name=u'C6H10(133)',
        atoms='H:10 C:6',
        thermo=(NASA([100.00, 1020.63],
                     [ 9.97427413E-01,  5.59777045E-02, -2.05880600E-05,
                      -1.17182304E-08,  8.13452041E-12,  6.30749855E+03,
                       2.38941836E+01]),
                NASA([1020.63, 5000.00],
                     [ 1.33828218E+01,  2.83661253E-02, -1.07663110E-05,
                       1.95749020E-09, -1.36589418E-13,  2.68926840E+03,
                      -4.14511818E+01])),
        transport=gas_transport(geom='nonlinear',
                                diam=5.673,
                                well_depth=388.08))

species(name=u'C8H12(134)',
        atoms='H:12 C:8',
        thermo=(NASA([100.00, 1002.94],
                     [ 1.69489980E-02,  7.28189377E-02, -2.16585698E-05,
                      -2.40807783E-08,  1.44597041E-11,  1.38562447E+04,
                       3.07679077E+01]),
                NASA([1002.94, 5000.00],
                     [ 1.77276883E+01,  3.45993801E-02, -1.29781828E-05,
                       2.37500136E-09, -1.67643536E-13,  8.67334638E+03,
                      -6.28559377E+01])),
        transport=gas_transport(geom='nonlinear',
                                diam=6.098,
                                well_depth=423.433))

species(name=u'C8H12(182)',
        atoms='H:12 C:8',
        thermo=(NASA([100.00, 991.54],
                     [ 7.50112289E-01,  5.22200295E-02,  3.27478787E-05,
                      -7.58054967E-08,  3.14361336E-11,  1.97370967E+04,
                       2.95980994E+01]),
                NASA([991.54, 5000.00],
                     [ 1.59973856E+01,  3.69184207E-02, -1.40068488E-05,
                       2.62974238E-09, -1.90070928E-13,  1.44419681E+04,
                      -5.52858890E+01])),
        transport=gas_transport(geom='nonlinear',
                                diam=6.544,
                                well_depth=456.021))

species(name=u'C6H10(301)',
        atoms='H:10 C:6',
        thermo=(NASA([100.00, 972.85],
                     [ 1.89244481E+00,  2.85669745E-02,  5.75234916E-05,
                      -9.12214688E-08,  3.58039628E-11,  1.00464014E+04,
                       2.05342237E+01]),
                NASA([972.85, 5000.00],
                     [ 1.27401301E+01,  2.82094400E-02, -1.01441048E-05,
                       1.89804962E-09, -1.39065424E-13,  5.84206841E+03,
                      -4.22616881E+01])),
        transport=gas_transport(geom='nonlinear',
                                diam=6.124,
                                well_depth=421.778))

species(name=u'S(345)',
        atoms='H:16 C:10',
        thermo=(NASA([100.00, 1108.32],
                     [-1.44473235E+00,  1.03798435E-01, -5.65964890E-05,
                       4.34646190E-09,  4.37524971E-12,  2.82264550E+04,
                       4.24341671E+01]),
                NASA([1108.32, 5000.00],
                     [ 2.03420713E+01,  5.11365588E-02, -2.04694340E-05,
                       3.75620247E-09, -2.60245904E-13,  2.18021880E+04,
                      -7.21104641E+01])),
        transport=gas_transport(geom='nonlinear',
                                diam=7.069,
                                well_depth=476.257))

species(name=u'S(376)',
        atoms='H:20 C:12',
        thermo=(NASA([100.00, 1576.80],
                     [-3.30440335E+00,  1.39516388E-01, -1.00770963E-04,
                       3.72173144E-08, -5.54945678E-12,  2.08766962E+04,
                       5.21171174E+01]),
                NASA([1576.80, 5000.00],
                     [ 2.94471319E+01,  5.64329991E-02, -2.17344071E-05,
                       3.80094276E-09, -2.51336095E-13,  1.05481520E+04,
                      -1.20805138E+02])),
        transport=gas_transport(geom='nonlinear',
                                diam=7.711,
                                well_depth=511.428))

species(name=u'S(703)',
        atoms='H:16 C:10',
        thermo=(NASA([100.00, 1529.33],
                     [-1.27998659E+00,  1.07061427E-01, -7.54810852E-05,
                       2.76060942E-08, -4.15562285E-12,  9.21403976E+03,
                       4.00297764E+01]),
                NASA([1529.33, 5000.00],
                     [ 2.00858107E+01,  5.11784182E-02, -2.06695808E-05,
                       3.71251848E-09, -2.49716375E-13,  2.67899727E+03,
                      -7.21245779E+01])),
        transport=gas_transport(geom='nonlinear',
                                diam=6.756,
                                well_depth=460.11))

species(name=u'S(710)',
        atoms='H:16 C:10',
        thermo=(NASA([100.00, 1123.67],
                     [-1.31764698E+00,  1.00170049E-01, -4.80609638E-05,
                      -2.83806667E-09,  6.28995927E-12,  9.62629007E+03,
                       3.99206955E+01]),
                NASA([1123.67, 5000.00],
                     [ 2.04321070E+01,  5.14203040E-02, -2.12619918E-05,
                       3.97217292E-09, -2.77843846E-13,  2.92812856E+03,
                      -7.56004118E+01])),
        transport=gas_transport(geom='nonlinear',
                                diam=6.775,
                                well_depth=461.06))

species(name=u'C8H14(720)',
        atoms='H:14 C:8',
        thermo=(NASA([100.00, 1506.76],
                     [ 5.49675181E-02,  8.43985440E-02, -5.64633487E-05,
                       1.98661295E-08, -2.94599969E-12, -7.77393079E+02,
                       2.95663347E+01]),
                NASA([1506.76, 5000.00],
                     [ 1.39949012E+01,  4.73919655E-02, -1.96226018E-05,
                       3.56583689E-09, -2.41458224E-13, -4.97819756E+03,
                      -4.34005510E+01])),
        transport=gas_transport(geom='nonlinear',
                                diam=6.336,
                                well_depth=426.003))

species(name=u'S(1664)',
        atoms='H:20 C:12',
        thermo=(NASA([100.00, 1527.77],
                     [-2.82153010E+00,  1.36077280E-01, -9.77847598E-05,
                       3.63447640E-08, -5.52389431E-12,  1.19305957E+03,
                       5.04106891E+01]),
                NASA([1527.77, 5000.00],
                     [ 2.56690905E+01,  6.14830837E-02, -2.45462604E-05,
                       4.38590115E-09, -2.94222145E-13, -7.51234112E+03,
                      -9.91145986E+01])),
        transport=gas_transport(geom='nonlinear',
                                diam=7.392,
                                well_depth=495.416))

species(name=u'C2H6(1758)',
        atoms='H:6 C:2',
        thermo=(NASA([100.00, 1012.42],
                     [ 3.72239291E+00,  1.65083841E-03,  3.44175530E-05,
                      -3.76858229E-08,  1.24450657E-11, -1.15575901E+04,
                       4.68247999E+00]),
                NASA([1012.42, 5000.00],
                     [ 2.82848257E+00,  1.73040568E-02, -6.73334245E-06,
                       1.23742024E-09, -8.65676410E-14, -1.19978080E+04,
                       5.93811707E+00])),
        transport=gas_transport(geom='nonlinear',
                                diam=4.302,
                                well_depth=252.3,
                                rot_relax=1.5))

species(name=u'S(1797)',
        atoms='H:20 C:12',
        thermo=(NASA([100.00, 1346.89],
                     [-2.27726184E+00,  1.36383370E-01, -1.01940241E-04,
                       4.09446514E-08, -6.93633574E-12,  1.53365038E+03,
                       4.65690661E+01]),
                NASA([1346.89, 5000.00],
                     [ 1.92658405E+01,  7.24041814E-02, -3.06876807E-05,
                       5.67674301E-09, -3.90121693E-13, -4.26955246E+03,
                      -6.37793174E+01])),
        transport=gas_transport(geom='nonlinear',
                                diam=7.401,
                                well_depth=495.629))

species(name=u'CH4(1879)',
        atoms='H:4 C:1',
        thermo=(NASA([100.00, 1084.12],
                     [ 4.20541524E+00, -5.35557362E-03,  2.51123265E-05,
                      -2.13762843E-08,  5.97523937E-12, -1.01619433E+04,
                      -9.21279283E-01]),
                NASA([1084.12, 5000.00],
                     [ 9.08265721E-01,  1.14540858E-02, -4.57173828E-06,
                       8.29191671E-10, -5.66314895E-14, -9.71997444E+03,
                       1.39930944E+01])),
        transport=gas_transport(geom='nonlinear',
                                diam=3.746,
                                well_depth=141.4,
                                polar=2.6,
                                rot_relax=13.0))

species(name=u'S(2082)',
        atoms='H:14 C:8',
        thermo=(NASA([100.00, 1014.29],
                     [-3.67121846E-01,  8.14233516E-02, -3.11110886E-05,
                      -1.65487757E-08,  1.19185866E-11, -3.02333684E+03,
                       3.00035003E+01]),
                NASA([1014.29, 5000.00],
                     [ 1.79686767E+01,  3.98264136E-02, -1.50150741E-05,
                       2.72531006E-09, -1.90287561E-13, -8.32275149E+03,
                      -6.65042554E+01])),
        transport=gas_transport(geom='nonlinear',
                                diam=6.328,
                                well_depth=425.761))

species(name=u'S(2249)',
        atoms='H:14 C:8',
        thermo=(NASA([100.00, 999.32],
                     [-8.27296041E-02,  7.33926821E-02, -9.70961131E-06,
                      -3.77339221E-08,  1.91784792E-11, -2.27794802E+03,
                       3.16114703E+01]),
                NASA([999.32, 5000.00],
                     [ 1.74908493E+01,  3.99675318E-02, -1.49508424E-05,
                       2.72972667E-09, -1.92366979E-13, -7.63361766E+03,
                      -6.23819175E+01])),
        transport=gas_transport(geom='nonlinear',
                                diam=6.384,
                                well_depth=433.303))

species(name=u'C4H8(4058)',
        atoms='H:8 C:4',
        thermo=(NASA([100.00, 1061.33],
                     [ 2.52504770E+00,  2.64752782E-02,  7.08359238E-06,
                      -2.07731462E-08,  8.00430055E-12, -4.02607130E+03,
                       1.28857274E+01]),
                NASA([1061.33, 5000.00],
                     [ 6.48672669E+00,  2.49943921E-02, -9.83283171E-06,
                       1.79343299E-09, -1.24008235E-13, -5.62452310E+03,
                      -1.00316397E+01])),
        transport=gas_transport(geom='nonlinear',
                                diam=5.238,
                                well_depth=351.146))

species(name=u'S(4086)',
        atoms='H:12 C:6',
        thermo=(NASA([100.00, 3144.72],
                     [ 1.62486600E+00,  5.81706891E-02, -2.94074668E-05,
                       6.41453677E-09, -5.27511383E-13, -9.95070725E+03,
                       2.05730324E+01]),
                NASA([3144.72, 5000.00],
                     [ 2.63049846E+01,  2.09689465E-02, -8.89163385E-06,
                       1.47783715E-09, -8.83519412E-14, -2.26006402E+04,
                      -1.22203751E+02])),
        transport=gas_transport(geom='nonlinear',
                                diam=5.876,
                                well_depth=387.836))

species(name=u'X(1)',
        atoms='X:1',
        thermo=(NASA([100.00, 1554.80],
                     [ 7.10139498E-03, -4.25619522E-05,  8.98533016E-08,
                      -7.80193649E-11,  2.32465471E-14, -8.76101712E-01,
                      -3.11211229E-02]),
                NASA([1554.80, 5000.00],
                     [ 1.60299900E-01, -2.52235409E-04,  1.14181275E-07,
                      -1.21471653E-11,  3.85790025E-16, -7.08100885E+01,
                      -9.09527530E-01])))

species(name=u'HX(5)',
        atoms='H:1 X:1',
        thermo=(NASA([100.00, 952.91],
                     [-3.80965452E-01,  5.47228709E-03,  2.60912778E-06,
                      -9.64961980E-09,  4.63946753E-12, -6.52141699E+03,
                       1.01725550E+00]),
                NASA([952.91, 5000.00],
                     [ 2.80339655E+00, -5.41047017E-04,  4.99507978E-07,
                      -7.54963647E-11,  3.06772366E-15, -7.46216641E+03,
                      -1.59436787E+01])))

species(name=u'C2H3X(37)',
        atoms='H:3 C:2 X:1',
        thermo=(NASA([100.00, 928.62],
                     [ 3.83091018E+00, -8.76381562E-03,  6.97956896E-05,
                      -8.67969174E-08,  3.33218121E-11,  2.32557546E+03,
                      -1.81151753E+01]),
                NASA([928.62, 5000.00],
                     [ 8.78054562E+00,  1.92497720E-03,  8.25825014E-07,
                      -1.63749818E-10,  5.71728318E-15,  2.61723399E+01,
                      -4.90588618E+01])))

species(name=u'CH3X(39)',
        atoms='H:3 C:1 X:1',
        thermo=(NASA([100.00, 848.30],
                     [-1.21090496E+00,  2.92390681E-02, -4.49011079E-05,
                       3.86009808E-08, -1.30361041E-11, -5.39494117E+03,
                       6.80939750E+00]),
                NASA([848.30, 5000.00],
                     [ 1.62290877E+00,  1.12987268E-02, -5.08316908E-06,
                       9.46833581E-10, -6.42885536E-14, -5.71100608E+03,
                      -5.42501059E+00])))

species(name=u'C2H5X(40)',
        atoms='H:5 C:2 X:1',
        thermo=(NASA([100.00, 803.81],
                     [-1.64625424E+00,  3.89626488E-02, -4.31128887E-05,
                       2.97076939E-08, -8.80222915E-12, -9.37861619E+03,
                       9.27323637E+00]),
                NASA([803.81, 5000.00],
                     [ 1.97598112E+00,  2.09382766E-02, -9.47916922E-06,
                       1.81392948E-09, -1.27206354E-13, -9.96096497E+03,
                      -7.41107956E+00])))

species(name=u'C4H7X(41)',
        atoms='H:7 C:4 X:1',
        thermo=(NASA([100.00, 971.02],
                     [ 2.64365035E+00,  1.79007589E-02,  4.24443189E-05,
                      -6.44028479E-08,  2.49593993E-11, -5.17297210E+03,
                      -6.69991651E+00]),
                NASA([971.02, 5000.00],
                     [ 9.25871667E+00,  2.04064152E-02, -7.39143670E-06,
                       1.37021231E-09, -9.94133357E-14, -7.86045623E+03,
                      -4.56426102E+01])))

species(name=u'C4H7X(42)',
        atoms='H:7 C:4 X:1',
        thermo=(NASA([100.00, 986.67],
                     [ 2.45798205E+00,  2.47217336E-02,  2.01285964E-05,
                      -4.02735564E-08,  1.62485845E-11,  3.22921495E+03,
                      -5.12991781E+00]),
                NASA([986.67, 5000.00],
                     [ 8.87898065E+00,  2.09043993E-02, -7.83851223E-06,
                       1.44076477E-09, -1.02346878E-13,  8.80858841E+02,
                      -4.15007572E+01])))

species(name=u'C4H7X(43)',
        atoms='H:7 C:4 X:1',
        thermo=(NASA([100.00, 965.06],
                     [ 2.56877619E+00,  1.97500674E-02,  3.72961301E-05,
                      -6.04017092E-08,  2.39989018E-11, -5.44439296E+03,
                      -8.56564322E+00]),
                NASA([965.06, 5000.00],
                     [ 9.89778724E+00,  1.86142959E-02, -6.38884453E-06,
                       1.17309353E-09, -8.55406646E-14, -8.22068416E+03,
                      -5.07182348E+01])))

species(name=u'C4H7X(44)',
        atoms='H:7 C:4 X:1',
        thermo=(NASA([100.00, 949.35],
                     [ 2.54254539E+00,  1.77389010E-02,  4.93877612E-05,
                      -7.72878178E-08,  3.10660019E-11, -4.21875966E+03,
                      -8.46783968E+00]),
                NASA([949.35, 5000.00],
                     [ 1.15220223E+01,  1.60005944E-02, -4.89823595E-06,
                       8.83972924E-10, -6.63710570E-14, -7.55029199E+03,
                      -5.98888028E+01])))

species(name=u'C2H2X(70)',
        atoms='H:2 C:2 X:1',
        thermo=(NASA([100.00, 1146.89],
                     [-1.35665997E+00,  2.85338019E-02, -3.11240758E-05,
                       1.70134067E-08, -3.63322671E-12, -8.97356235E+02,
                       3.79543665E+00]),
                NASA([1146.89, 5000.00],
                     [ 4.86807469E+00,  6.82428196E-03, -2.73110334E-06,
                       5.09415334E-10, -3.57467832E-14, -2.32520252E+03,
                      -2.70885611E+01])))

species(name=u'C4H5X(80)',
        atoms='H:5 C:4 X:1',
        thermo=(NASA([100.00, 936.52],
                     [ 2.68471723E+00,  1.36244496E-02,  5.32591849E-05,
                      -8.32912448E-08,  3.41499374E-11,  4.41880565E+03,
                      -1.06510487E+01]),
                NASA([936.52, 5000.00],