units(length='cm', time='s', quantity='mol', act_energy='kcal/mol')

ideal_gas(name='gas',
          elements="H D T C Ci O Oi N Ne Ar He Si S Cl X",
          species="""n-heptane   Ar          He          Ne
                     N2          C2H4(2)     C4H8-1(3)   C4H8-2(4)
                     C4H6(7)     C6H8(9)     C4H6a(79)   S(163)
                     S(181)      S(185)      C6H8(196)   C8H10(199)
                     S(284)      S(294)      S(309)      S(320)
                     S(627)      S(647)      C8H11(748)  C8H11(750)
                     S(821)      S(825)      S(839)      S(840)
                     S(841)      S(843)      S(846)      S(995)
                     S(1324)     S(1926)     S(2783)     S(3073)
                     S(3323)     S(3467)     S(3851)     S(3960)
                     S(4072)     S(4296)     S(4543)""",
          reactions='gas-*',
          initial_state=state(temperature=300.0, pressure=OneAtm))

ideal_interface(name='surface1',
                elements="H D T C Ci O Oi N Ne Ar He Si S Cl X",
                species="""X(1)       HX(5)      C2H3X(37)  C4H5X(80)
                          C4H5X(81)  SX(810)    SX(812)    SX(1101)
                          SX(1103)   SX(1106)   SX(1107)   SX(1109)
                          SX(1747)   SX(1751)   SX(1823)   SX(1824)
                          SX(1975)   SX(1976)   SX(1989)   SX(2003)
                          SX(2004)   SX(2009)   SX(2010)   SX(2011)
                          SX(2096)   SX(2097)   SX(2101)   SX(2102)
                          SX(2103)   SX(2104)   SX(2107)   SX(2146)
                          SX(2150)   SX(2151)   SX(2188)   SX(2190)
                          SX(2318)   SX(2347)   SX(2348)   SX(2352)
                          SX(2874)   SX(2876)   SX(2880)   SX(2894)
                          SX(2978)   SX(2980)   SX(3010)   SX(3011)
                          SX(3026)   SX(3029)   SX(3053)   SX(3251)
                          SX(3335)   SX(3339)   SX(3361)   SX(3362)
                          SX(3637)   SX(3638)   SX(3707)   SX(3712)
                          SX(4271)   SX(4277)   SX(4278)   SX(4282)
                          SX(4283)   SX(4284)   SX(4293)   SX(4295)
                          SX(4299)   SX(4300)   SX(4301)   SX(4307)
                          SX(4311)   SX(4312)   SX(4313)   SX(4325)
                          SX(4326)   SX(4345)   SX(4346)   SX(4364)
                          SX(4376)   SX(4377)   SX(4392)   SX(4474)
                          SX(4496)   SX(4497)   SX(4504)   SX(4513)
                          SX(4524)   SX(4528)   SX(4533)   SX(4542)""",
                site_density=2.72e-09,
                phases="gas",
          reactions='surface1-*',
                initial_state=state(temperature=300.0, pressure=OneAtm))

#-------------------------------------------------------------------------------
# Element data
#-------------------------------------------------------------------------------

element(symbol=u'X', atomic_mass=195.083)
element(symbol=u'Ci', atomic_mass=13.003)
element(symbol=u'D', atomic_mass=2.014)
element(symbol=u'Oi', atomic_mass=18.0)
element(symbol=u'T', atomic_mass=3.016)
#-------------------------------------------------------------------------------
# Species data
#-------------------------------------------------------------------------------

species(name=u'n-heptane',
        atoms='H:16 C:7',
        thermo=(NASA([100.00, 1262.73],
                     [-2.91681405E-03,  7.69373649E-02, -3.48025563E-05,
                       1.86095180E-09,  2.01573617E-12, -2.57829342E+04,
                       3.00312148E+01]),
                NASA([1262.73, 5000.00],
                     [ 1.38377915E+01,  4.85945016E-02, -1.95474548E-05,
                       3.52837178E-09, -2.39064676E-13, -3.05141556E+04,
                      -4.48642836E+01])))

species(name=u'Ar',
        atoms='Ar:1',
        thermo=(NASA([200.00, 1000.00],
                     [ 2.50000000E+00,  0.00000000E+00,  0.00000000E+00,
                       0.00000000E+00,  0.00000000E+00, -7.45375000E+02,
                       4.37967000E+00]),
                NASA([1000.00, 6000.00],
                     [ 2.50000000E+00,  0.00000000E+00,  0.00000000E+00,
                       0.00000000E+00,  0.00000000E+00, -7.45375000E+02,
                       4.37967000E+00])))

species(name=u'He',
        atoms='He:1',
        thermo=(NASA([200.00, 1000.00],
                     [ 2.50000000E+00,  0.00000000E+00,  0.00000000E+00,
                       0.00000000E+00,  0.00000000E+00, -7.45375000E+02,
                       9.28724000E-01]),
                NASA([1000.00, 6000.00],
                     [ 2.50000000E+00,  0.00000000E+00,  0.00000000E+00,
                       0.00000000E+00,  0.00000000E+00, -7.45375000E+02,
                       9.28724000E-01])))

species(name=u'Ne',
        atoms='Ne:1',
        thermo=(NASA([200.00, 1000.00],
                     [ 2.50000000E+00,  0.00000000E+00,  0.00000000E+00,
                       0.00000000E+00,  0.00000000E+00, -7.45375000E+02,
                       3.35532000E+00]),
                NASA([1000.00, 6000.00],
                     [ 2.50000000E+00,  0.00000000E+00,  0.00000000E+00,
                       0.00000000E+00,  0.00000000E+00, -7.45375000E+02,
                       3.35532000E+00])))

species(name=u'N2',
        atoms='N:2',
        thermo=(NASA([200.00, 1000.00],
                     [ 3.53101000E+00, -1.23661000E-04, -5.02999000E-07,
                       2.43531000E-09, -1.40881000E-12, -1.04698000E+03,
                       2.96747000E+00]),
                NASA([1000.00, 6000.00],
                     [ 2.95258000E+00,  1.39690000E-03, -4.92632000E-07,
                       7.86010000E-11, -4.60755000E-15, -9.23949000E+02,
                       5.87189000E+00])))

species(name=u'C2H4(2)',
        atoms='H:4 C:2',
        thermo=(NASA([100.00, 979.36],
                     [ 3.97471606E+00, -4.75844285E-03,  4.16783770E-05,
                      -4.51392516E-08,  1.54224761E-11,  4.91540746E+03,
                       3.62430844E+00]),
                NASA([979.36, 5000.00],
                     [ 3.55660610E+00,  1.10627464E-02, -4.17019079E-06,
                       7.85586770E-10, -5.70060829E-14,  4.32046489E+03,
                       2.17719479E+00])))

species(name=u'C4H8-1(3)',
        atoms='H:8 C:4',
        thermo=(NASA([100.00, 1007.28],
                     [ 2.58772906E+00,  2.32777969E-02,  1.93412349E-05,
                      -3.55496333E-08,  1.36906009E-11, -1.91872926E+03,
                       1.45750618E+01]),
                NASA([1007.28, 5000.00],
                     [ 7.20517168E+00,  2.36361568E-02, -9.03150028E-06,
                       1.65392666E-09, -1.16019260E-13, -3.79733937E+03,
                      -1.24426257E+01])))

species(name=u'C4H8-2(4)',
        atoms='H:8 C:4',
        thermo=(NASA([100.00, 1157.79],
                     [ 2.51998327E+00,  2.76812799E-02,  9.43783469E-07,
                      -1.25009101E-08,  4.67144666E-12, -3.34374767E+03,
                       1.30195623E+01]),
                NASA([1157.79, 5000.00],
                     [ 6.04225708E+00,  2.60072350E-02, -1.04843374E-05,
                       1.90880922E-09, -1.30600505E-13, -4.86276511E+03,
                      -7.52715109E+00])))

species(name=u'C4H6(7)',
        atoms='H:6 C:4',
        thermo=(NASA([100.00, 946.05],
                     [ 2.80599310E+00,  1.02584471E-02,  6.17260255E-05,
                      -9.01642687E-08,  3.59116961E-11,  1.16584972E+04,
                       1.20621434E+01]),
                NASA([946.05, 5000.00],
                     [ 1.24693720E+01,  1.00553901E-02, -2.41206872E-06,
                       4.57077303E-10, -3.93160571E-14,  8.01077795E+03,
                      -4.36374720E+01])))

species(name=u'C6H8(9)',
        atoms='H:8 C:6',
        thermo=(NASA([100.00, 941.22],
                     [ 1.38427980E+00,  4.14411503E-02,  1.94287417E-05,
                      -6.16688700E-08,  2.86503633E-11,  1.76317461E+04,
                       1.93257509E+01]),
                NASA([941.22, 5000.00],
                     [ 1.69619680E+01,  1.57221707E-02, -4.10118367E-06,
                       6.95736344E-10, -5.26521484E-14,  1.29061672E+04,
                      -6.44097553E+01])))

species(name=u'C4H6a(79)',
        atoms='H:6 C:4',
        thermo=(NASA([100.00, 950.38],
                     [ 3.41327601E+00, -4.60830638E-03,  9.57205603E-05,
                      -1.18800574E-07,  4.44495312E-11,  1.74039828E+04,
                       1.01517556E+01]),
                NASA([950.38, 5000.00],
                     [ 9.72156091E+00,  1.36879055E-02, -3.93842260E-06,
                       7.58710118E-10, -6.16013131E-14,  1.41795804E+04,
                      -3.06164436E+01])))

species(name=u'S(163)',
        atoms='H:14 C:10',
        thermo=(NASA([100.00, 1005.33],
                     [-8.70330413E-01,  8.89793335E-02, -2.38552724E-05,
                      -3.15628111E-08,  1.81664076E-11,  3.78335548E+04,
                       4.06086741E+01]),
                NASA([1005.33, 5000.00],
                     [ 2.02610588E+01,  4.45995858E-02, -1.68699763E-05,
                       3.08363695E-09, -2.16972192E-13,  3.15786714E+04,
                      -7.14276628E+01])))

species(name=u'S(181)',
        atoms='H:16 C:12',
        thermo=(NASA([100.00, 985.43],
                     [-1.88304682E+00,  1.07042194E-01, -2.70554103E-05,
                      -4.30549514E-08,  2.47781880E-11,  4.00783494E+04,
                       4.74620913E+01]),
                NASA([985.43, 5000.00],
                     [ 2.44922294E+01,  5.06805346E-02, -1.84366585E-05,
                       3.32433721E-09, -2.33631810E-13,  3.24185269E+04,
                      -9.18863874E+01])))

species(name=u'S(185)',
        atoms='H:16 C:12',
        thermo=(NASA([100.00, 992.45],
                     [-1.36726188E+00,  9.09276671E-02,  1.69902518E-05,
                      -8.53947805E-08,  3.84301239E-11,  2.11993195E+04,
                       3.87738109E+01]),
                NASA([992.45, 5000.00],
                     [ 2.42201531E+01,  5.14040751E-02, -1.94056379E-05,
                       3.62910452E-09, -2.61722320E-13,  1.29880616E+04,
                      -1.00257920E+02])))

species(name=u'C6H8(196)',
        atoms='H:8 C:6',
        thermo=(NASA([100.00, 972.94],
                     [ 1.82686070E+00,  3.47046353E-02,  2.41070171E-05,
                      -5.44847920E-08,  2.29388832E-11,  1.99100661E+04,
                       1.81393315E+01]),
                NASA([972.94, 5000.00],
                     [ 1.21686202E+01,  2.40472785E-02, -8.58151834E-06,
                       1.57034031E-09, -1.12795334E-13,  1.63897115E+04,
                      -3.92195169E+01])))

species(name=u'C8H10(199)',
        atoms='H:10 C:8',
        thermo=(NASA([100.00, 966.00],
                     [ 5.26364552E-01,  5.92493286E-02,  6.02658334E-06,
                      -5.32875938E-08,  2.55662369E-11,  2.61873255E+04,
                       2.61353490E+01]),
                NASA([966.00, 5000.00],
                     [ 1.80461436E+01,  2.79985777E-02, -9.56971683E-06,
                       1.72854036E-09, -1.24398543E-13,  2.08757672E+04,
                      -6.77541641E+01])))

species(name=u'S(284)',
        atoms='H:16 C:12',
        thermo=(NASA([100.00, 983.18],
                     [-2.05097756E+00,  1.11125066E-01, -3.58412237E-05,
                      -3.59772249E-08,  2.27919017E-11,  3.98958457E+04,
                       4.68593887E+01]),
                NASA([983.18, 5000.00],
                     [ 2.52169911E+01,  4.97969231E-02, -1.79633975E-05,
                       3.22270937E-09, -2.25930287E-13,  3.21362552E+04,
                      -9.64240230E+01])))

species(name=u'S(294)',
        atoms='H:16 C:12',
        thermo=(NASA([100.00, 965.51],
                     [-1.48010848E+00,  8.73195699E-02,  4.32084939E-05,
                      -1.24323023E-07,  5.52324518E-11,  1.86240551E+04,
                       3.89687652E+01]),
                NASA([965.51, 5000.00],
                     [ 2.86828957E+01,  4.34912924E-02, -1.47497714E-05,
                       2.73150662E-09, -2.02190259E-13,  9.01787604E+03,
                      -1.25075357E+02])))

species(name=u'S(309)',
        atoms='H:16 C:12',
        thermo=(NASA([100.00, 980.77],
                     [-2.21845665E+00,  1.15202302E-01, -4.46058253E-05,
                      -2.89292454E-08,  2.08193354E-11,  3.97133228E+04,
                       4.48687920E+01]),
                NASA([980.77, 5000.00],
                     [ 2.59409200E+01,  4.89148103E-02, -1.74910345E-05,
                       3.12129948E-09, -2.18247198E-13,  3.18543069E+04,
                      -1.02343316E+02])))

species(name=u'S(320)',
        atoms='H:16 C:12',
        thermo=(NASA([100.00, 989.29],
                     [-1.49871027E+00,  8.97231513E-02,  3.13728211E-05,
                      -1.05849951E-07,  4.65472901E-11,  2.08342656E+04,
                       3.86324941E+01]),
                NASA([989.29, 5000.00],
                     [ 2.71231573E+01,  4.82447418E-02, -1.83146882E-05,
                       3.49879125E-09, -2.57494969E-13,  1.15378770E+04,
                      -1.17506583E+02])))

species(name=u'S(627)',
        atoms='H:16 C:12',
        thermo=(NASA([100.00, 1082.71],
                     [-1.42165646E+00,  1.00366054E-01, -2.86690015E-05,
                      -2.45430021E-08,  1.37134617E-11,  2.67269131E+04,
                       3.45501008E+01]),
                NASA([1082.71, 5000.00],
                     [ 1.94956582E+01,  6.02181764E-02, -2.44875026E-05,
                       4.55572743E-09, -3.18938634E-13,  2.00211421E+04,
                      -7.80762928E+01])))

species(name=u'S(647)',
        atoms='H:16 C:12',
        thermo=(NASA([100.00, 967.86],
                     [-1.32209228E+00,  8.47378361E-02,  4.59787499E-05,
                      -1.23781967E-07,  5.42497769E-11,  2.23199283E+04,
                       3.57020946E+01]),
                NASA([967.86, 5000.00],
                     [ 2.71811605E+01,  4.57697461E-02, -1.58000646E-05,
                       2.92345730E-09, -2.14846023E-13,  1.31102045E+04,
                      -1.19952912E+02])))

species(name=u'C8H11(748)',
        atoms='H:11 C:8',
        thermo=(NASA([100.00, 959.84],
                     [ 1.55549600E-01,  6.83420271E-02, -9.25100203E-06,
                      -4.10151280E-08,  2.20233793E-11,  2.30207324E+04,
                       2.83933616E+01]),
                NASA([959.84, 5000.00],
                     [ 1.87271414E+01,  2.98804919E-02, -9.98815788E-06,
                       1.75648186E-09, -1.23926719E-13,  1.76621576E+04,
                      -6.97849415E+01])))

species(name=u'C8H11(750)',
        atoms='H:11 C:8',
        thermo=(NASA([100.00, 959.84],
                     [ 1.55549600E-01,  6.83420271E-02, -9.25100203E-06,
                      -4.10151280E-08,  2.20233793E-11,  2.30207324E+04,
                       2.83933616E+01]),
                NASA([959.84, 5000.00],
                     [ 1.87271414E+01,  2.98804919E-02, -9.98815788E-06,
                       1.75648186E-09, -1.23926719E-13,  1.76621576E+04,
                      -6.97849415E+01])))

species(name=u'S(821)',
        atoms='H:16 C:12',
        thermo=(NASA([100.00, 990.58],
                     [-2.33660705E+00,  1.17589627E-01, -5.07043398E-05,
                      -2.32373623E-08,  1.87493632E-11,  4.39282128E+04,
                       4.73006447E+01]),
                NASA([990.58, 5000.00],
                     [ 2.68127310E+01,  4.77499782E-02, -1.74312383E-05,
                       3.15091712E-09, -2.21747475E-13,  3.58048177E+04,
                      -1.04906066E+02])))

species(name=u'S(825)',
        atoms='H:16 C:12',
        thermo=(NASA([100.00, 990.58],
                     [-2.33660705E+00,  1.17589627E-01, -5.07043398E-05,
                      -2.32373623E-08,  1.87493632E-11,  4.39282128E+04,
                       4.73006447E+01]),
                NASA([990.58, 5000.00],
                     [ 2.68127310E+01,  4.77499782E-02, -1.74312383E-05,
                       3.15091712E-09, -2.21747475E-13,  3.58048177E+04,
                      -1.04906066E+02])))

species(name=u'S(839)',
        atoms='H:16 C:12',
        thermo=(NASA([100.00, 990.94],
                     [-1.53673879E+00,  9.50296733E-02,  8.13325447E-06,
                      -7.82185025E-08,  3.63989841E-11,  2.10168816E+04,
                       3.81765950E+01]),
                NASA([990.94, 5000.00],
                     [ 2.49483558E+01,  5.05143791E-02, -1.89287732E-05,
                       3.52660923E-09, -2.53947844E-13,  1.27044184E+04,
                      -1.04814787E+02])))

species(name=u'S(840)',
        atoms='H:16 C:12',
        thermo=(NASA([100.00, 990.94],
                     [-1.53673879E+00,  9.50296733E-02,  8.13325447E-06,
                      -7.82185025E-08,  3.63989841E-11,  2.10168816E+04,
                       3.81765950E+01]),
                NASA([990.94, 5000.00],
                     [ 2.49483558E+01,  5.05143791E-02, -1.89287732E-05,
                       3.52660923E-09, -2.53947844E-13,  1.27044184E+04,
                      -1.04814787E+02])))

species(name=u'S(841)',
        atoms='H:16 C:12',
        thermo=(NASA([100.00, 965.51],
                     [-1.48010848E+00,  8.73195699E-02,  4.32084939E-05,
                      -1.24323023E-07,  5.52324518E-11,  1.86240551E+04,
                       3.89687652E+01]),
                NASA([965.51, 5000.00],
                     [ 2.86828957E+01,  4.34912924E-02, -1.47497714E-05,
                       2.73150662E-09, -2.02190259E-13,  9.01787604E+03,
                      -1.25075357E+02])))

species(name=u'S(843)',
        atoms='H:16 C:12',
        thermo=(NASA([100.00, 990.56],
                     [-1.32892162E+00,  8.56175091E-02,  4.02422312E-05,
                      -1.13041663E-07,  4.85846312E-11,  2.10166900E+04,
                       3.92285904E+01]),
                NASA([990.56, 5000.00],
                     [ 2.63931502E+01,  4.91374623E-02, -1.87932792E-05,
                       3.60169126E-09, -2.65302821E-13,  1.18222932E+04,
                      -1.12939530E+02])))

species(name=u'S(846)',
        atoms='H:16 C:12',
        thermo=(NASA([100.00, 984.18],
                     [-8.68718801E-01,  7.64739455E-02,  5.68502265E-05,
                      -1.24594589E-07,  5.17445815E-11,  2.10848487E+04,
                       3.83828428E+01]),
                NASA([984.18, 5000.00],
                     [ 2.32342640E+01,  5.25863825E-02, -1.96396862E-05,
                       3.69301318E-09, -2.68833322E-13,  1.27530663E+04,
                      -9.57413256E+01])))

species(name=u'S(995)',
        atoms='H:15 C:12',
        thermo=(NASA([100.00, 993.54],
                     [-1.21346258E+00,  8.43526020E-02,  3.95110756E-05,
                      -1.09218661E-07,  4.65596299E-11,  3.07992502E+04,
                       3.58638913E+01]),
                NASA([993.54, 5000.00],
                     [ 2.48582341E+01,  5.15640076E-02, -1.99549339E-05,
                       3.80148454E-09, -2.77628001E-13,  2.20562691E+04,
                      -1.07675478E+02])))

species(name=u'S(1324)',
        atoms='H:16 C:12',
        thermo=(NASA([100.00, 966.26],
                     [-1.49048930E+00,  8.88249098E-02,  3.71853256E-05,
                      -1.16706601E-07,  5.22707812E-11,  2.21374453E+04,
                       3.51011409E+01]),
                NASA([966.26, 5000.00],
                     [ 2.79145277E+01,  4.48719764E-02, -1.53188329E-05,
                       2.81997997E-09, -2.06993164E-13,  1.28241634E+04,
                      -1.24539286E+02])))

species(name=u'S(1926)',
        atoms='H:17 C:12',
        thermo=(NASA([100.00, 981.83],
                     [-1.24440800E+00,  8.56287216E-02,  4.13326157E-05,
                      -1.11975012E-07,  4.80364667E-11,  1.79184624E+04,
                       4.06580468E+01]),
                NASA([981.83, 5000.00],
                     [ 2.39190526E+01,  5.44606449E-02, -2.00532209E-05,
                       3.71971097E-09, -2.68253084E-13,  9.53824674E+03,
                      -9.77927157E+01])))

species(name=u'S(2783)',
        atoms='H:15 C:12',
        thermo=(NASA([100.00, 979.04],
                     [-1.05276437E+00,  7.62110242E-02,  6.93007290E-05,
                      -1.44742586E-07,  6.02670606E-11,  3.02745900E+04,
                       3.78176511E+01]),
                NASA([979.04, 5000.00],
                     [ 2.67373390E+01,  4.78497228E-02, -1.77498968E-05,
                       3.39817028E-09, -2.52701319E-13,  2.07507716E+04,
                      -1.16513284E+02])))

species(name=u'S(3073)',
        atoms='H:14 C:10',
        thermo=(NASA([100.00, 979.13],
                     [-1.61786644E+00,  1.06166096E-01, -6.04080465E-05,
                      -5.41801887E-09,  1.20423333E-11,  1.49251320E+04,
                       3.39372406E+01]),
                NASA([979.13, 5000.00],
                     [ 2.48037279E+01,  3.66649106E-02, -1.28202507E-05,
                       2.27494797E-09, -1.59205363E-13,  7.90859579E+03,
                      -1.02383319E+02])))

species(name=u'S(3323)',
        atoms='H:17 C:12',
        thermo=(NASA([100.00, 1137.53],
                     [-2.52749407E+00,  1.22888272E-01, -6.53198676E-05,
                       2.29163542E-09,  5.95924968E-12,  1.88913789E+04,
                       1.23935235E+01]),
                NASA([1137.53, 5000.00],
                     [ 2.56005942E+01,  5.79575133E-02, -2.45049053E-05,
                       4.63050530E-09, -3.25852585E-13,  1.02936988E+04,
                      -1.36595723E+02])))

species(name=u'S(3467)',
        atoms='H:16 C:12',
        thermo=(NASA([100.00, 995.36],
                     [-1.38075117E+00,  9.24683015E-02,  1.08518849E-05,
                      -7.76445350E-08,  3.54197768E-11,  2.47128441E+04,
                       3.49174086E+01]),
                NASA([995.36, 5000.00],
                     [ 2.34747752E+01,  5.27464139E-02, -1.99528912E-05,
                       3.71247862E-09, -2.66105517E-13,  1.67844433E+04,
                      -9.98517432E+01])))

species(name=u'S(3851)',
        atoms='H:16 C:10',
        thermo=(NASA([100.00, 1424.05],
                     [-1.53117492E+00,  1.12156235E-01, -8.51506284E-05,
                       3.40694122E-08, -5.59243571E-12,  5.68885387E+03,
                       3.77497207E+01]),
                NASA([1424.05, 5000.00],
                     [ 2.04696849E+01,  5.03580776E-02, -2.00563716E-05,
                       3.59556411E-09, -2.42566171E-13, -5.77194812E+02,
                      -7.61690656E+01])))

species(name=u'S(3960)',
        atoms='H:16 C:10',
        thermo=(NASA([100.00, 1024.95],
                     [-1.58118174E+00,  1.05792071E-01, -5.53448018E-05,
                      -4.15276216E-09,  9.34803995E-12,  3.30081480E+03,
                       3.82272916E+01]),
                NASA([1024.95, 5000.00],
                     [ 2.21950701E+01,  4.65049552E-02, -1.76093641E-05,
                       3.19365226E-09, -2.22456568E-13, -3.33286583E+03,
                      -8.56500242E+01])))

species(name=u'S(4072)',
        atoms='H:16 C:10',
        thermo=(NASA([100.00, 1424.05],
                     [-1.53117492E+00,  1.12156235E-01, -8.51506284E-05,
                       3.40694122E-08, -5.59243571E-12,  5.68885387E+03,
                       3.77497207E+01]),
                NASA([1424.05, 5000.00],
                     [ 2.04696849E+01,  5.03580776E-02, -2.00563716E-05,
                       3.59556411E-09, -2.42566171E-13, -5.77194812E+02,
                      -7.61690656E+01])))

species(name=u'S(4296)',
        atoms='H:17 C:12',
        thermo=(NASA([100.00, 1009.68],
                     [-8.33908282E-01,  7.51875500E-02,  6.67781658E-05,
                      -1.29368018E-07,  5.10819126E-11,  1.69409312E+04,
                       3.93026864E+01]),
                NASA([1009.68, 5000.00],
                     [ 2.14077080E+01,  6.20418564E-02, -2.50660490E-05,
                       4.81177660E-09, -3.49523643E-13,  8.62823844E+03,
                      -8.71378942E+01])))

species(name=u'S(4543)',
        atoms='H:15 C:12',
        thermo=(NASA([100.00, 969.17],
                     [-1.33112740E+00,  8.08061419E-02,  6.54896307E-05,
                      -1.47798167E-07,  6.31949869E-11,  2.82241901E+04,
                       3.60758231E+01]),
                NASA([969.17, 5000.00],
                     [ 2.93222374E+01,  4.36477264E-02, -1.52964970E-05,
                       2.90318484E-09, -2.18031869E-13,  1.80859861E+04,
                      -1.32499192E+02])))

species(name=u'X(1)',
        atoms='X:1',
        thermo=(NASA([100.00, 1554.80],
                     [ 7.10139498E-03, -4.25619522E-05,  8.98533016E-08,
                      -7.80193649E-11,  2.32465471E-14, -8.76101712E-01,
                      -3.11211229E-02]),
                NASA([1554.80, 5000.00],
                     [ 1.60299900E-01, -2.52235409E-04,  1.14181275E-07,
                      -1.21471653E-11,  3.85790025E-16, -7.08100885E+01,
                      -9.09527530E-01])))

species(name=u'HX(5)',
        atoms='H:1 X:1',
        thermo=(NASA([100.00, 952.91],
                     [-3.80965452E-01,  5.47228709E-03,  2.60912778E-06,
                      -9.64961980E-09,  4.63946753E-12, -9.42254356E+03,
                       1.01725550E+00]),
                NASA([952.91, 5000.00],
                     [ 2.80339655E+00, -5.41047017E-04,  4.99507978E-07,
                      -7.54963647E-11,  3.06772366E-15, -1.03632930E+04,
                      -1.59436787E+01])))

species(name=u'C2H3X(37)',
        atoms='H:3 C:2 X:1',
        thermo=(NASA([100.00, 928.62],
                     [ 3.83091018E+00, -8.76381562E-03,  6.97956896E-05,
                      -8.67969174E-08,  3.33218121E-11,  8.12782859E+03,
                      -1.81151753E+01]),
                NASA([928.62, 5000.00],
                     [ 8.78054562E+00,  1.92497720E-03,  8.25825014E-07,
                      -1.63749818E-10,  5.71728318E-15,  5.82842547E+03,
                      -4.90588618E+01])))

species(name=u'C4H5X(80)',
        atoms='H:5 C:4 X:1',
        thermo=(NASA([100.00, 936.52],
                     [ 2.68471723E+00,  1.36244496E-02,  5.32591849E-05,
                      -8.32912448E-08,  3.41499374E-11,  1.02210588E+04,
                      -1.06510487E+01]),
                NASA([936.52, 5000.00],
                     [ 1.29012266E+01,  8.96921861E-03, -1.71920076E-06,
                       2.89744517E-10, -2.58686364E-14,  6.59801984E+03,
                      -6.83963397E+01])))

species(name=u'C4H5X(81)',
        atoms='H:5 C:4 X:1',
        thermo=(NASA([100.00, 928.63],
                     [ 2.64232495E+00,  8.31109593E-03,  8.12146261E-05,
                      -1.21398701E-07,  4.98630759E-11,  1.54039675E+04,
                      -1.03932963E+01]),
                NASA([928.63, 5000.00],
                     [ 1.69490474E+01,  2.00818812E-03,  2.03468841E-06,
                      -4.02657023E-10,  1.85400094E-14,  1.03614732E+04,
                      -9.11990785E+01])))

species(name=u'SX(810)',
        atoms='H:11 C:8 X:1',
        thermo=(NASA([100.00, 953.16],
                     [ 1.12169077E-01,  6.54834271E-02,  1.11836659E-05,
                      -6.69104796E-08,  3.20665352E-11,  8.93731610E+03,
                       7.62826504E+00]),
                NASA([953.16, 5000.00],
                     [ 2.04270399E+01,  2.94164898E-02, -9.46114672E-06,
                       1.66712233E-09, -1.19904943E-13,  2.83033911E+03,
                      -1.01125205E+02])))

species(name=u'SX(812)',
        atoms='H:11 C:8 X:1',
        thermo=(NASA([100.00, 953.16],
                     [ 1.12169077E-01,  6.54834271E-02,  1.11836659E-05,
                      -6.69104796E-08,  3.20665352E-11,  8.93731610E+03,
                       7.62826504E+00]),
                NASA([953.16, 5000.00],
                     [ 2.04270399E+01,  2.94164898E-02, -9.46114672E-06,
                       1.66712233E-09, -1.19904943E-13,  2.83033911E+03,
                      -1.01125205E+02])))

species(name=u'SX(1101)',
        atoms='H:15 C:12 X:1',
        thermo=(NASA([100.00, 998.97],
                     [-8.99471708E-01,  7.61906300E-02,  6.22755405E-05,
                      -1.28403241E-07,  5.19561596E-11,  1.93041532E+04,
                       1.70460900E+01]),
                NASA([998.97, 5000.00],
                     [ 2.29677772E+01,  5.66231660E-02, -2.24612172E-05,
                       4.30391511E-09, -3.14023333E-13,  1.07434699E+04,
                      -1.17055355E+02])))

species(name=u'SX(1103)',
        atoms='H:15 C:12 X:1',
        thermo=(NASA([100.00, 984.86],
                     [-1.25415917E+00,  8.14723399E-02,  5.99670849E-05,
                      -1.35047832E-07,  5.65263335E-11,  1.67157131E+04,
                       1.50885788E+01]),
                NASA([984.86, 5000.00],
                     [ 2.64955777E+01,  5.12028157E-02, -1.94857584E-05,
                       3.72553762E-09, -2.74703249E-13,  7.25188332E+03,
                      -1.38661398E+02])))

species(name=u'SX(1106)',
        atoms='H:15 C:12 X:1',
        thermo=(NASA([100.00, 976.31],
                     [-1.37882584E+00,  8.72729725E-02,  3.54645112E-05,
                      -1.10989729E-07,  4.90790319E-11,  2.34760676E+04,
                       1.56116669E+01]),