units(length='cm', time='s', quantity='mol', act_energy='kcal/mol')

ideal_gas(name='gas',
          elements="H D T C Ci O Oi N Ne Ar He Si S Cl X",
          species="""N2          Ar          He          Ne
                     CH4(2)      O2(3)       CO2(4)      H2O(5)
                     H2(6)       CO(7)       C2H6(8)     CH2O(9)
                     CH3(10)     C3H8(11)    H(12)       C2H5(13)
                     CH3OH(14)   HCO(15)     CH3CHO(16)  OH(17)
                     C2H4(18)    O(T)(31)    HO2(52)     CH2OH(57)
                     CH3O(58)    CH2O2(69)   HOOH(147)   CHO4(148)
                     CH4O3(153)  OCO(154)    CH4O4(184)  CH3O2(195)
                     CH4O3(205)  CH3O4(216)  CH3O3(245)  CH3O3(246)
                     CH4O5(268)  CH4O4(269)  CH2O3(300)  CH3O4(309)
                     CH2O4(353)  S(356)      CHO3(420)""",
          reactions='gas-*',
          transport='Mix',
          initial_state=state(temperature=300.0, pressure=OneAtm))

ideal_interface(name='surface1',
                elements="H D T C Ci O Oi N Ne Ar He Si S Cl X",
                species="""X(1)        HX(19)      OX(20)      OCX(21)
                          CH3X(22)    HOX(23)     HOCXO(25)   CXHO(27)
                          CH4X(33)    CO2X(34)    H2OX(35)    H2X(36)
                          COX(37)     CH2OX(40)   CH3OX(44)   CH3OX(45)
                          CH3OHX(46)  HO2X(136)   SX(137)     CHO2X(159)
                          HOOHX(163)  SX(164)     SX(165)     SX(166)
                          SX(167)     SX(168)     SX(180)     SX(193)
                          SX(194)     SX(202)     SX(213)     SX(214)
                          SX(215)     SX(243)     SX(244)     SX(265)
                          SX(282)     SX(308)     SX(325)     CHO3X(351)
                          SX(367)     SX(402)     SX(411)     SX(430)
                          SX(474)""",
                site_density=2.9e-09,
                phases="gas",
          reactions='surface1-*',
                initial_state=state(temperature=300.0, pressure=OneAtm))

#-------------------------------------------------------------------------------
# Element data
#-------------------------------------------------------------------------------

element(symbol=u'X', atomic_mass=195.083)
element(symbol=u'Ci', atomic_mass=13.003)
element(symbol=u'D', atomic_mass=2.014)
element(symbol=u'Oi', atomic_mass=18.0)
element(symbol=u'T', atomic_mass=3.016)
#-------------------------------------------------------------------------------
# Species data
#-------------------------------------------------------------------------------

species(name=u'N2',
        atoms='N:2',
        thermo=(NASA([200.00, 1000.00],
                     [ 3.53101000E+00, -1.23661000E-04, -5.02999000E-07,
                       2.43531000E-09, -1.40881000E-12, -1.04698000E+03,
                       2.96747000E+00]),
                NASA([1000.00, 6000.00],
                     [ 2.95258000E+00,  1.39690000E-03, -4.92632000E-07,
                       7.86010000E-11, -4.60755000E-15, -9.23949000E+02,
                       5.87189000E+00])),
        transport=gas_transport(geom='linear',
                                diam=3.621,
                                well_depth=97.53,
                                polar=1.76,
                                rot_relax=4.0))

species(name=u'Ar',
        atoms='Ar:1',
        thermo=(NASA([200.00, 1000.00],
                     [ 2.50000000E+00,  0.00000000E+00,  0.00000000E+00,
                       0.00000000E+00,  0.00000000E+00, -7.45375000E+02,
                       4.37967000E+00]),
                NASA([1000.00, 6000.00],
                     [ 2.50000000E+00,  0.00000000E+00,  0.00000000E+00,
                       0.00000000E+00,  0.00000000E+00, -7.45375000E+02,
                       4.37967000E+00])),
        transport=gas_transport(geom='atom',
                                diam=3.33,
                                well_depth=136.501))

species(name=u'He',
        atoms='He:1',
        thermo=(NASA([200.00, 1000.00],
                     [ 2.50000000E+00,  0.00000000E+00,  0.00000000E+00,
                       0.00000000E+00,  0.00000000E+00, -7.45375000E+02,
                       9.28724000E-01]),
                NASA([1000.00, 6000.00],
                     [ 2.50000000E+00,  0.00000000E+00,  0.00000000E+00,
                       0.00000000E+00,  0.00000000E+00, -7.45375000E+02,
                       9.28724000E-01])),
        transport=gas_transport(geom='atom',
                                diam=2.576,
                                well_depth=10.2))

species(name=u'Ne',
        atoms='Ne:1',
        thermo=(NASA([200.00, 1000.00],
                     [ 2.50000000E+00,  0.00000000E+00,  0.00000000E+00,
                       0.00000000E+00,  0.00000000E+00, -7.45375000E+02,
                       3.35532000E+00]),
                NASA([1000.00, 6000.00],
                     [ 2.50000000E+00,  0.00000000E+00,  0.00000000E+00,
                       0.00000000E+00,  0.00000000E+00, -7.45375000E+02,
                       3.35532000E+00])),
        transport=gas_transport(geom='atom',
                                diam=3.758,
                                well_depth=148.6))

species(name=u'CH4(2)',
        atoms='H:4 C:1',
        thermo=(NASA([100.00, 1084.12],
                     [ 4.20541396E+00, -5.35555888E-03,  2.51122769E-05,
                      -2.13762231E-08,  5.97521487E-12, -1.01619432E+04,
                      -9.21274669E-01]),
                NASA([1084.12, 5000.00],
                     [ 9.08273098E-01,  1.14540737E-02, -4.57173142E-06,
                       8.29190079E-10, -5.66313591E-14, -9.71997767E+03,
                       1.39930526E+01])),
        transport=gas_transport(geom='nonlinear',
                                diam=3.746,
                                well_depth=141.4,
                                polar=2.6,
                                rot_relax=13.0))

species(name=u'O2(3)',
        atoms='O:2',
        thermo=(NASA([100.00, 1074.55],
                     [ 3.53732243E+00, -1.21571647E-03,  5.31620251E-06,
                      -4.89446431E-09,  1.45846257E-12, -1.03858849E+03,
                       4.68368183E+00]),
                NASA([1074.55, 5000.00],
                     [ 3.15382081E+00,  1.67804370E-03, -7.69974233E-07,
                       1.51275461E-10, -1.08782413E-14, -1.04081728E+03,
                       6.16755830E+00])),
        transport=gas_transport(geom='linear',
                                diam=3.458,
                                well_depth=107.4,
                                polar=1.6,
                                rot_relax=3.8))

species(name=u'CO2(4)',
        atoms='C:1 O:2',
        thermo=(NASA([100.00, 978.22],
                     [ 3.28083824E+00,  2.50193256E-03,  8.08164703E-06,
                      -1.20506712E-08,  4.66526718E-12, -4.84008301E+04,
                       6.00083683E+00]),
                NASA([978.22, 5000.00],
                     [ 4.67429770E+00,  2.60958854E-03, -9.85659876E-07,
                       1.95706754E-10, -1.49830341E-14, -4.89512267E+04,
                      -2.11090641E+00])),
        transport=gas_transport(geom='linear',
                                diam=3.763,
                                well_depth=244.001,
                                polar=2.65,
                                rot_relax=2.1))

species(name=u'H2O(5)',
        atoms='H:2 O:1',
        thermo=(NASA([100.00, 1130.24],
                     [ 4.05763590E+00, -7.87936602E-04,  2.90877737E-06,
                      -1.47519153E-09,  2.12844074E-13, -3.02815866E+04,
                      -3.11364299E-01]),
                NASA([1130.24, 5000.00],
                     [ 2.84325004E+00,  2.75108613E-03, -7.81031867E-07,
                       1.07243728E-10, -5.79392960E-15, -2.99586126E+04,
                       5.91042224E+00])),
        transport=gas_transport(geom='nonlinear',
                                diam=2.605,
                                well_depth=572.402,
                                dipole=1.844,
                                rot_relax=4.0))

species(name=u'H2(6)',
        atoms='H:2',
        thermo=(NASA([100.00, 1959.08],
                     [ 3.43536428E+00,  2.12708915E-04, -2.78621781E-07,
                       3.40264607E-10, -7.76025661E-14, -1.03135985E+03,
                      -3.90841796E+00]),
                NASA([1959.08, 5000.00],
                     [ 2.78814852E+00,  5.87663436E-04,  1.58999886E-07,
                      -5.52717891E-11,  4.34295580E-15, -5.96134054E+02,
                       1.12835287E-01])),
        transport=gas_transport(geom='linear',
                                diam=2.92,
                                well_depth=38.0,
                                polar=0.79,
                                rot_relax=280.0))

species(name=u'CO(7)',
        atoms='C:1 O:1',
        thermo=(NASA([100.00, 1571.65],
                     [ 3.56837939E+00, -8.52119928E-04,  2.48916304E-06,
                      -1.56329664E-09,  3.13591236E-13, -1.42842549E+04,
                       3.57912400E+00]),
                NASA([1571.65, 5000.00],
                     [ 2.91308345E+00,  1.64655452E-03, -6.88603036E-07,
                       1.21034842E-10, -7.83998733E-15, -1.41808934E+04,
                       6.71035991E+00])),
        transport=gas_transport(geom='linear',
                                diam=3.65,
                                well_depth=98.1,
                                polar=1.95,
                                rot_relax=1.8))

species(name=u'C2H6(8)',
        atoms='H:6 C:2',
        thermo=(NASA([100.00, 1012.42],
                     [ 3.72239881E+00,  1.65076821E-03,  3.44178003E-05,
                      -3.76861438E-08,  1.24452019E-11, -1.15575904E+04,
                       4.68245888E+00]),
                NASA([1012.42, 5000.00],
                     [ 2.82845712E+00,  1.73040998E-02, -6.73336713E-06,
                       1.23742605E-09, -8.65681217E-14, -1.19977972E+04,
                       5.93826056E+00])),
        transport=gas_transport(geom='nonlinear',
                                diam=4.302,
                                well_depth=252.301,
                                rot_relax=1.5))

species(name=u'CH2O(9)',
        atoms='H:2 C:1 O:1',
        thermo=(NASA([100.00, 1070.44],
                     [ 4.12927447E+00, -4.08397202E-03,  2.03227944E-05,
                      -1.83522506E-08,  5.37968482E-12, -1.44294638E+04,
                       3.22419741E+00]),
                NASA([1070.44, 5000.00],
                     [ 2.21174381E+00,  7.94262467E-03, -3.34191236E-06,
                       6.28467171E-10, -4.40427976E-14, -1.42974541E+04,
                       1.13047887E+01])),
        transport=gas_transport(geom='nonlinear',
                                diam=3.59,
                                well_depth=498.002,
                                rot_relax=2.0))

species(name=u'CH3(10)',
        atoms='H:3 C:1',
        thermo=(NASA([100.00, 697.60],
                     [ 3.96043213E+00,  5.92925963E-04,  8.78580494E-06,
                      -9.88037667E-09,  3.63237957E-12,  1.64218817E+04,
                       3.39861548E-01]),
                NASA([697.60, 5000.00],
                     [ 3.09511296E+00,  5.55429642E-03, -1.88158701E-06,
                       3.13334608E-10, -2.05194821E-14,  1.65426189E+04,
                       4.20297295E+00])),
        transport=gas_transport(geom='nonlinear',
                                diam=3.8,
                                well_depth=144.001))

species(name=u'C3H8(11)',
        atoms='H:8 C:3',
        thermo=(NASA([100.00, 990.00],
                     [ 3.06333284E+00,  1.29218029E-02,  3.47020413E-05,
                      -4.70929788E-08,  1.71377066E-11, -1.43905776E+04,
                       1.07836622E+01]),
                NASA([990.00, 5000.00],
                     [ 5.60451369E+00,  2.19526856E-02, -8.22069474E-06,
                       1.50101360E-09, -1.05633173E-13, -1.58394513E+04,
                      -6.22687052E+00])),
        transport=gas_transport(geom='nonlinear',
                                diam=4.982,
                                well_depth=266.801,
                                rot_relax=1.0))

species(name=u'H(12)',
        atoms='H:1',
        thermo=(NASA([100.00, 2121.20],
                     [ 2.50000000E+00,  1.37382135E-15, -2.66902032E-18,
                       1.75563256E-21, -3.60841378E-25,  2.54742178E+04,
                      -4.44972896E-01]),
                NASA([2121.20, 5000.00],
                     [ 2.50000000E+00,  3.04114587E-14, -1.54210734E-17,
                       3.31770777E-21, -2.56694325E-25,  2.54742178E+04,
                      -4.44972896E-01])),
        transport=gas_transport(geom='atom',
                                diam=2.05,
                                well_depth=145.0))

species(name=u'C2H5(13)',
        atoms='H:5 C:2',
        thermo=(NASA([100.00, 1006.88],
                     [ 3.68744897E+00,  3.06909276E-03,  2.55866189E-05,
                      -2.94067554E-08,  9.94037753E-12,  1.31153655E+04,
                       6.96690734E+00]),
                NASA([1006.88, 5000.00],
                     [ 3.53787931E+00,  1.37310464E-02, -5.29557903E-06,
                       9.71466988E-10, -6.80276352E-14,  1.26351497E+04,
                       5.15527045E+00])),
        transport=gas_transport(geom='nonlinear',
                                diam=4.302,
                                well_depth=252.301,
                                rot_relax=1.5))

species(name=u'CH3OH(14)',
        atoms='H:4 C:1 O:1',
        thermo=(NASA([100.00, 1035.75],
                     [ 3.84006233E+00,  1.38241775E-03,  1.91667268E-05,
                      -2.01568759E-08,  6.39102670E-12, -2.56083087E+04,
                       5.90978069E+00]),
                NASA([1035.75, 5000.00],
                     [ 2.79184207E+00,  1.15827867E-02, -4.51552014E-06,
                       8.21206908E-10, -5.67063416E-14, -2.57211670E+04,
                       9.41062095E+00])),
        transport=gas_transport(geom='nonlinear',
                                diam=3.626,
                                well_depth=481.802,
                                rot_relax=1.0))

species(name=u'HCO(15)',
        atoms='H:1 C:1 O:1',
        thermo=(NASA([100.00, 1112.11],
                     [ 4.05936320E+00, -1.73845454E-03,  9.14977737E-06,
                      -8.01127536E-09,  2.25735698E-12,  3.84377621E+03,
                       3.32450019E+00]),
                NASA([1112.11, 5000.00],
                     [ 3.05136750E+00,  4.11705516E-03, -1.75585917E-06,
                       3.29301629E-10, -2.29173059E-14,  3.93007673E+03,
                       7.67461088E+00])),
        transport=gas_transport(geom='nonlinear',
                                diam=3.59,
                                well_depth=498.002))

species(name=u'CH3CHO(16)',
        atoms='H:4 C:2 O:1',
        thermo=(NASA([100.00, 1028.81],
                     [ 3.57992410E+00,  5.18983325E-03,  2.26897548E-05,
                      -2.73742711E-08,  9.28479960E-12, -2.13697374E+04,
                       8.96971522E+00]),
                NASA([1028.81, 5000.00],
                     [ 4.08563848E+00,  1.39061204E-02, -5.59370228E-06,
                       1.04609277E-09, -7.38738626E-14, -2.20391343E+04,
                       3.76801751E+00])),
        transport=gas_transport(geom='nonlinear',
                                diam=3.97,
                                well_depth=436.001,
                                rot_relax=2.0))

species(name=u'OH(17)',
        atoms='H:1 O:1',
        thermo=(NASA([100.00, 1145.75],
                     [ 3.51456792E+00,  2.92786950E-05, -5.32167684E-07,
                       1.01949538E-09, -3.85947129E-13,  3.41425420E+03,
                       2.10434926E+00]),
                NASA([1145.75, 5000.00],
                     [ 3.07194067E+00,  6.04014297E-04, -1.39775153E-08,
                      -2.13447882E-11,  2.48067106E-15,  3.57938638E+03,
                       4.57799517E+00])),
        transport=gas_transport(geom='linear',
                                diam=2.75,
                                well_depth=80.0))

species(name=u'C2H4(18)',
        atoms='H:4 C:2',
        thermo=(NASA([100.00, 979.35],
                     [ 3.97471621E+00, -4.75844470E-03,  4.16783836E-05,
                      -4.51392605E-08,  1.54224800E-11,  4.91540745E+03,
                       3.62430789E+00]),
                NASA([979.35, 5000.00],
                     [ 3.55660552E+00,  1.10627474E-02, -4.17019137E-06,
                       7.85586906E-10, -5.70060942E-14,  4.32046513E+03,
                       2.17719804E+00])),
        transport=gas_transport(geom='nonlinear',
                                diam=3.971,
                                well_depth=280.801,
                                rot_relax=1.5))

species(name=u'O(T)(31)',
        atoms='O:1',
        thermo=(NASA([100.00, 2121.20],
                     [ 2.50000000E+00,  1.37382135E-15, -2.66902032E-18,
                       1.75563256E-21, -3.60841378E-25,  2.92302441E+04,
                       4.09104286E+00]),
                NASA([2121.20, 5000.00],
                     [ 2.50000000E+00,  3.04114587E-14, -1.54210734E-17,
                       3.31770777E-21, -2.56694325E-25,  2.92302441E+04,
                       4.09104286E+00])),
        transport=gas_transport(geom='atom',
                                diam=2.75,
                                well_depth=80.0))

species(name=u'HO2(52)',
        atoms='H:1 O:2',
        thermo=(NASA([100.00, 1000.24],
                     [ 4.02425788E+00, -1.64548634E-03,  1.05110464E-05,
                      -1.06992945E-08,  3.49385843E-12,  2.34739971E+02,
                       4.70057545E+00]),
                NASA([1000.24, 5000.00],
                     [ 3.62867270E+00,  3.05389077E-03, -1.21131651E-06,
                       2.29641277E-10, -1.65063389E-14,  1.57929915E+02,
                       5.82959801E+00])),
        transport=gas_transport(geom='nonlinear',
                                diam=3.458,
                                well_depth=107.4,
                                rot_relax=1.0))

species(name=u'CH2OH(57)',
        atoms='H:3 C:1 O:1',
        thermo=(NASA([100.00, 1015.49],
                     [ 3.61905185E+00,  6.28698764E-03,  5.57442606E-06,
                      -9.77858650E-09,  3.69452667E-12, -3.32162385E+03,
                       6.61713964E+00]),
                NASA([1015.49, 5000.00],
                     [ 4.77202296E+00,  6.78471685E-03, -2.60441839E-06,
                       4.77562945E-10, -3.34607088E-14, -3.81561804E+03,
                      -2.42329324E-01])),
        transport=gas_transport(geom='nonlinear',
                                diam=3.69,
                                well_depth=417.002,
                                dipole=1.7,
                                rot_relax=2.0))

species(name=u'CH3O(58)',
        atoms='H:3 C:1 O:1',
        thermo=(NASA([100.00, 985.46],
                     [ 3.95612913E+00, -3.06310314E-03,  3.06883814E-05,
                      -3.34123277E-08,  1.13928798E-11,  1.19253617E+03,
                       4.69435405E+00]),
                NASA([985.46, 5000.00],
                     [ 3.74492042E+00,  8.52627541E-03, -3.28790820E-06,
                       6.23964887E-10, -4.53276417E-14,  7.13053653E+02,
                       3.06621917E+00])),
        transport=gas_transport(geom='nonlinear',
                                diam=3.69,
                                well_depth=417.002,
                                dipole=1.7,
                                rot_relax=2.0))

species(name=u'CH2O2(69)',
        atoms='H:2 C:1 O:2',
        thermo=(NASA([100.00, 993.73],
                     [ 3.76240454E+00, -9.43842199E-04,  3.38778189E-05,
                      -4.04982820E-08,  1.43986274E-11, -4.68212101E+04,
                       7.63276476E+00]),
                NASA([993.73, 5000.00],
                     [ 5.64500562E+00,  7.55181529E-03, -3.20851096E-06,
                       6.58918223E-10, -5.05054535E-14, -4.79890035E+04,
                      -5.43105881E+00])),
        transport=gas_transport(geom='nonlinear',
                                diam=3.626,
                                well_depth=481.8,
                                dipole=1.7,
                                rot_relax=1.0))

species(name=u'HOOH(147)',
        atoms='H:2 O:2',
        thermo=(NASA([100.00, 1005.77],
                     [ 3.81666619E+00,  2.71170433E-03,  6.17780656E-06,
                      -8.24870111E-09,  2.92677433E-12, -1.76922542E+04,
                       5.38573097E+00]),
                NASA([1005.77, 5000.00],
                     [ 4.14709571E+00,  4.72698871E-03, -1.79322783E-06,
                       3.26125781E-10, -2.27314321E-14, -1.79271200E+04,
                       2.95253834E+00])),
        transport=gas_transport(geom='nonlinear',
                                diam=3.458,
                                well_depth=107.4,
                                rot_relax=3.8))

species(name=u'CHO4(148)',
        atoms='H:1 C:1 O:4',
        thermo=(NASA([100.00, 929.32],
                     [ 2.55593010E+00,  1.61663991E-02,  3.39888990E-05,
                      -6.86917411E-08,  3.08151321E-11, -5.19968492E+04,
                       1.61545553E+01]),
                NASA([929.32, 5000.00],
                     [ 1.68557311E+01, -5.29730393E-03,  3.93068689E-06,
                      -7.12866763E-10,  4.12117400E-14, -5.63856296E+04,
                      -6.10986109E+01])),
        transport=gas_transport(geom='nonlinear',
                                diam=6.079,
                                well_depth=500.186))

species(name=u'CH4O3(153)',
        atoms='H:4 C:1 O:3',
        thermo=(NASA([100.00, 1356.75],
                     [ 2.22803734E+00,  3.40318228E-02, -3.13933867E-05,
                       1.44113919E-08, -2.58881773E-12, -3.98227250E+04,
                       1.50578409E+01]),
                NASA([1356.75, 5000.00],
                     [ 1.08688585E+01,  8.55674240E-03, -3.22854099E-06,
                       5.72010754E-10, -3.87176068E-14, -4.21674097E+04,
                      -2.92653653E+01])),
        transport=gas_transport(geom='nonlinear',
                                diam=6.094,
                                well_depth=454.226))

species(name=u'OCO(154)',
        atoms='H:4 C:1 O:2',
        thermo=(NASA([100.00, 894.09],
                     [ 2.88386319E+00,  7.57467370E-03,  5.50799064E-05,
                      -9.34520356E-08,  4.16336462E-11, -4.93732329E+04,
                       1.12132794E+01]),
                NASA([894.09, 5000.00],
                     [ 1.68605231E+01, -9.64314765E-03,  7.94863255E-06,
                      -1.62835417E-09,  1.09847261E-13, -5.36836114E+04,
                      -6.47794874E+01])),
        transport=gas_transport(geom='nonlinear',
                                diam=5.898,
                                well_depth=436.691))

species(name=u'CH4O4(184)',
        atoms='H:4 C:1 O:4',
        thermo=(NASA([100.00, 828.76],
                     [ 2.00255951E+00,  5.15289574E-02, -9.09559947E-05,
                       8.90313717E-08, -3.34382547E-11, -6.35833544E+04,
                       1.89280414E+01]),
                NASA([828.76, 5000.00],
                     [ 4.15411356E+00,  2.48080861E-02, -1.30252102E-05,
                       2.55795997E-09, -1.78282475E-13, -6.33789503E+04,
                       1.23368967E+01])),
        transport=gas_transport(geom='nonlinear',
                                diam=6.815,
                                well_depth=524.195))

species(name=u'CH3O2(195)',
        atoms='H:3 C:1 O:2',
        thermo=(NASA([100.00, 1261.92],
                     [ 2.70939937E+00,  2.54992691E-02, -3.14580345E-05,
                       1.89352643E-08, -4.23673645E-12, -2.66538217E+04,
                       1.16232996E+01]),
                NASA([1261.92, 5000.00],
                     [ 8.67767366E+00,  2.77370929E-03,  8.08693324E-08,
                      -1.17574688E-10,  1.15160994E-14, -2.78569591E+04,
                      -1.73574150E+01])),
        transport=gas_transport(geom='nonlinear',
                                diam=5.898,
                                well_depth=436.691))

species(name=u'CH4O3(205)',
        atoms='H:4 C:1 O:3',
        thermo=(NASA([100.00, 844.27],
                     [ 2.69688683E+00,  3.43590961E-02, -5.88055956E-05,
                       5.90150972E-08, -2.25204820E-11, -7.22065652E+04,
                       1.45765536E+01]),
                NASA([844.27, 5000.00],
                     [ 2.93919345E+00,  2.00243521E-02, -9.90877630E-06,
                       1.90444191E-09, -1.31174349E-13, -7.17775071E+04,
                       1.62318820E+01])),
        transport=gas_transport(geom='nonlinear',
                                diam=6.621,
                                well_depth=506.876))

species(name=u'CH3O4(216)',
        atoms='H:3 C:1 O:4',
        thermo=(NASA([100.00, 865.07],
                     [ 2.26017980E+00,  4.79934637E-02, -9.57236653E-05,
                       9.80996536E-08, -3.68797569E-11, -4.53126516E+04,
                       1.87631259E+01]),
                NASA([865.07, 5000.00],
                     [ 2.57333611E+00,  2.31350622E-02, -1.20270687E-05,
                       2.31559196E-09, -1.58020960E-13, -4.44908835E+04,
                       2.23606105E+01])),
        transport=gas_transport(geom='nonlinear',
                                diam=6.815,
                                well_depth=524.195))

species(name=u'CH3O3(245)',
        atoms='H:3 C:1 O:3',
        thermo=(NASA([100.00, 853.61],
                     [ 3.24526350E+00,  3.16185137E-02, -8.37877221E-05,
                       1.09317082E-07, -4.73195415E-11, -4.48856816E+04,
                       1.41783489E+01]),
                NASA([853.61, 5000.00],
                     [-6.08765403E+00,  3.51522511E-02, -1.93557746E-05,
                       3.82494348E-09, -2.65477357E-13, -4.18277597E+04,
                       6.63058567E+01])),
        transport=gas_transport(geom='nonlinear',
                                diam=6.621,
                                well_depth=506.876))

species(name=u'CH3O3(246)',
        atoms='H:3 C:1 O:3',
        thermo=(NASA([100.00, 863.70],
                     [ 2.72618255E+00,  3.51825066E-02, -6.95394436E-05,
                       7.15514820E-08, -2.70217029E-11, -4.75235516E+04,
                       1.51594238E+01]),
                NASA([863.70, 5000.00],
                     [ 2.78839849E+00,  1.76330337E-02, -9.08325270E-06,
                       1.74813165E-09, -1.19415600E-13, -4.68904652E+04,
                       1.85955528E+01])),
        transport=gas_transport(geom='nonlinear',
                                diam=6.621,
                                well_depth=506.876))

species(name=u'CH4O5(268)',
        atoms='H:4 C:1 O:5',
        thermo=(NASA([100.00, 889.37],
                     [ 1.23924392E+00,  6.81614603E-02, -1.18378917E-04,
                       1.04625954E-07, -3.50070988E-11, -8.46421759E+04,
                       2.15566873E+01]),
                NASA([889.37, 5000.00],
                     [ 8.14477987E+00,  2.03203892E-02, -9.38472173E-06,
                       1.70637827E-09, -1.12225283E-13, -8.52067452E+04,
                      -7.21735396E+00])),
        transport=gas_transport(geom='nonlinear',
                                diam=7.543,
                                well_depth=594.641))

species(name=u'CH4O4(269)',
        atoms='H:4 C:1 O:4',
        thermo=(NASA([100.00, 924.72],
                     [ 1.92958619E+00,  5.10648123E-02, -8.66426365E-05,
                       7.54596870E-08, -2.46385619E-11, -9.32652146E+04,
                       1.69303755E+01]),
                NASA([924.72, 5000.00],
                     [ 6.84926930E+00,  1.56744726E-02, -6.34811685E-06,
                       1.07178153E-09, -6.66907133E-14, -9.35718212E+04,
                      -3.15736440E+00])),
        transport=gas_transport(geom='nonlinear',
                                diam=7.348,
                                well_depth=576.993))

species(name=u'CH2O3(300)',
        atoms='H:2 C:1 O:3',
        thermo=(NASA([100.00, 956.75],
                     [ 2.98116485E+00,  1.14388967E-02,  2.77945674E-05,
                      -4.94698284E-08,  2.07998802E-11, -7.51362668E+04,
                       1.09457253E+01]),
                NASA([956.75, 5000.00],
                     [ 1.18953481E+01,  1.71602739E-03, -1.47931928E-07,
                       9.25917696E-11, -1.38613567E-14, -7.81027326E+04,
                      -3.82545507E+01])),
        transport=gas_transport(geom='nonlinear',
                                diam=5.425,
                                well_depth=432.363))

species(name=u'CH3O4(309)',
        atoms='H:3 C:1 O:4',
        thermo=(NASA([100.00, 882.91],
                     [ 2.50484286E+00,  4.79666878E-02, -1.10155826E-04,
                       1.23476497E-07, -4.82582223E-11, -6.59454725E+04,
                       1.67258716E+01]),
                NASA([882.91, 5000.00],
                     [-2.18099045E+00,  3.08128421E-02, -1.58031135E-05,
                       2.99451492E-09, -2.01200362E-13, -6.36220041E+04,
                       4.72209420E+01])),
        transport=gas_transport(geom='nonlinear',