units(length='cm', time='s', quantity='mol', act_energy='kcal/mol')

ideal_gas(name='gas',
          elements="H D T C Ci O Oi N Ne Ar He Si S Cl X",
          species="""n-heptane   Ar          He          Ne
                     N2          C2H4(2)     C4H8-1(3)   C4H8-2(4)
                     C4H6(7)     C3H6(32)    H2(68)      C8H12(134)
                     C6H10(158)  C8H14(165)  C4H8(187)   CH4(413)
                     C5H10(417)  C5H10(419)  C2H6(428)   S(1378)""",
          reactions='gas-*',
          initial_state=state(temperature=300.0, pressure=OneAtm))

ideal_interface(name='surface1',
                elements="H D T C Ci O Oi N Ne Ar He Si S Cl X",
                species="""X(1)        HX(5)       C2H3X(37)   allylX(38)
                          CH3X(39)    C2H5X(40)   C4H7X(41)   C4H7X(42)
                          C4H7X(43)   C4H7X(44)   C3H5X(45)   C4H7X(46)
                          C4H7X(47)   C4H5X(80)   C4H5X(81)   C6H9X(98)
                          SX(110)     C6H9X(115)  SX(120)     SX(121)
                          C4H7X(153)  C3H5X(181)  C4H7X(202)  SX(229)
                          C6H9X(247)  C5H7X(249)  C6H9X(287)  C6H9X(288)
                          C6H9X(289)  C5H9X(414)  C5H9X(415)  C6H9X(429)
                          C6H9X(457)  C6H9X(458)  C6H9X(459)  C6H9X(539)
                          SX(542)     C5H9X(742)  SX(843)     SX(845)
                          SX(848)     SX(1052)    SX(1144)    SX(1186)
                          SX(1221)    SX(1256)    SX(1257)    SX(1302)
                          SX(1303)    SX(1349)    SX(1391)    SX(1437)
                          SX(1549)    SX(1605)    SX(1627)    SX(1628)
                          SX(1629)    SX(1735)    SX(1794)    SX(1796)
                          SX(1799)    SX(1885)    SX(1925)    SX(2033)
                          SX(2074)    SX(2146)    SX(2175)    SX(2176)
                          SX(2177)    SX(2230)    SX(2343)    SX(2344)
                          SX(2470)    SX(2689)    SX(3088)    SX(3089)
                          SX(3119)    SX(3169)    SX(3196)    SX(3313)
                          SX(3314)    SX(3316)    SX(3317)    SX(3318)
                          SX(3518)""",
                site_density=2.72e-09,
                phases="gas",
          reactions='surface1-*',
                initial_state=state(temperature=300.0, pressure=OneAtm))

#-------------------------------------------------------------------------------
# Element data
#-------------------------------------------------------------------------------

element(symbol=u'X', atomic_mass=195.083)
element(symbol=u'Ci', atomic_mass=13.003)
element(symbol=u'D', atomic_mass=2.014)
element(symbol=u'Oi', atomic_mass=18.0)
element(symbol=u'T', atomic_mass=3.016)
#-------------------------------------------------------------------------------
# Species data
#-------------------------------------------------------------------------------

species(name=u'n-heptane',
        atoms='H:16 C:7',
        thermo=(NASA([100.00, 1262.73],
                     [-2.91681405E-03,  7.69373649E-02, -3.48025563E-05,
                       1.86095180E-09,  2.01573617E-12, -2.57829342E+04,
                       3.00312148E+01]),
                NASA([1262.73, 5000.00],
                     [ 1.38377915E+01,  4.85945016E-02, -1.95474548E-05,
                       3.52837178E-09, -2.39064676E-13, -3.05141556E+04,
                      -4.48642836E+01])))

species(name=u'Ar',
        atoms='Ar:1',
        thermo=(NASA([200.00, 1000.00],
                     [ 2.50000000E+00,  0.00000000E+00,  0.00000000E+00,
                       0.00000000E+00,  0.00000000E+00, -7.45375000E+02,
                       4.37967000E+00]),
                NASA([1000.00, 6000.00],
                     [ 2.50000000E+00,  0.00000000E+00,  0.00000000E+00,
                       0.00000000E+00,  0.00000000E+00, -7.45375000E+02,
                       4.37967000E+00])))

species(name=u'He',
        atoms='He:1',
        thermo=(NASA([200.00, 1000.00],
                     [ 2.50000000E+00,  0.00000000E+00,  0.00000000E+00,
                       0.00000000E+00,  0.00000000E+00, -7.45375000E+02,
                       9.28724000E-01]),
                NASA([1000.00, 6000.00],
                     [ 2.50000000E+00,  0.00000000E+00,  0.00000000E+00,
                       0.00000000E+00,  0.00000000E+00, -7.45375000E+02,
                       9.28724000E-01])))

species(name=u'Ne',
        atoms='Ne:1',
        thermo=(NASA([200.00, 1000.00],
                     [ 2.50000000E+00,  0.00000000E+00,  0.00000000E+00,
                       0.00000000E+00,  0.00000000E+00, -7.45375000E+02,
                       3.35532000E+00]),
                NASA([1000.00, 6000.00],
                     [ 2.50000000E+00,  0.00000000E+00,  0.00000000E+00,
                       0.00000000E+00,  0.00000000E+00, -7.45375000E+02,
                       3.35532000E+00])))

species(name=u'N2',
        atoms='N:2',
        thermo=(NASA([200.00, 1000.00],
                     [ 3.53101000E+00, -1.23661000E-04, -5.02999000E-07,
                       2.43531000E-09, -1.40881000E-12, -1.04698000E+03,
                       2.96747000E+00]),
                NASA([1000.00, 6000.00],
                     [ 2.95258000E+00,  1.39690000E-03, -4.92632000E-07,
                       7.86010000E-11, -4.60755000E-15, -9.23949000E+02,
                       5.87189000E+00])))

species(name=u'C2H4(2)',
        atoms='H:4 C:2',
        thermo=(NASA([100.00, 979.36],
                     [ 3.97471606E+00, -4.75844285E-03,  4.16783770E-05,
                      -4.51392516E-08,  1.54224761E-11,  4.91540746E+03,
                       3.62430844E+00]),
                NASA([979.36, 5000.00],
                     [ 3.55660610E+00,  1.10627464E-02, -4.17019079E-06,
                       7.85586770E-10, -5.70060829E-14,  4.32046489E+03,
                       2.17719479E+00])))

species(name=u'C4H8-1(3)',
        atoms='H:8 C:4',
        thermo=(NASA([100.00, 1007.28],
                     [ 2.58772906E+00,  2.32777969E-02,  1.93412349E-05,
                      -3.55496333E-08,  1.36906009E-11, -1.91872926E+03,
                       1.45750618E+01]),
                NASA([1007.28, 5000.00],
                     [ 7.20517168E+00,  2.36361568E-02, -9.03150028E-06,
                       1.65392666E-09, -1.16019260E-13, -3.79733937E+03,
                      -1.24426257E+01])))

species(name=u'C4H8-2(4)',
        atoms='H:8 C:4',
        thermo=(NASA([100.00, 1157.79],
                     [ 2.51998327E+00,  2.76812799E-02,  9.43783469E-07,
                      -1.25009101E-08,  4.67144666E-12, -3.34374767E+03,
                       1.30195623E+01]),
                NASA([1157.79, 5000.00],
                     [ 6.04225708E+00,  2.60072350E-02, -1.04843374E-05,
                       1.90880922E-09, -1.30600505E-13, -4.86276511E+03,
                      -7.52715109E+00])))

species(name=u'C4H6(7)',
        atoms='H:6 C:4',
        thermo=(NASA([100.00, 946.05],
                     [ 2.80599310E+00,  1.02584471E-02,  6.17260255E-05,
                      -9.01642687E-08,  3.59116961E-11,  1.16584972E+04,
                       1.20621434E+01]),
                NASA([946.05, 5000.00],
                     [ 1.24693720E+01,  1.00553901E-02, -2.41206872E-06,
                       4.57077303E-10, -3.93160571E-14,  8.01077795E+03,
                      -4.36374720E+01])))

species(name=u'C3H6(32)',
        atoms='H:6 C:3',
        thermo=(NASA([100.00, 983.75],
                     [ 3.31912102E+00,  8.17958674E-03,  3.34736123E-05,
                      -4.36193684E-08,  1.58213364E-11,  7.49325328E+02,
                       9.54025058E+00]),
                NASA([983.75, 5000.00],
                     [ 5.36755173E+00,  1.70743019E-02, -6.35107626E-06,
                       1.16619529E-09, -8.27620279E-14, -4.87138326E+02,
                      -4.54467529E+00])))

species(name=u'H2(68)',
        atoms='H:2',
        thermo=(NASA([100.00, 1959.08],
                     [ 3.43536412E+00,  2.12710353E-04, -2.78625043E-07,
                       3.40267167E-10, -7.76031998E-14, -1.03135984E+03,
                      -3.90841732E+00]),
                NASA([1959.08, 5000.00],
                     [ 2.78816583E+00,  5.87640942E-04,  1.59010417E-07,
                      -5.52739026E-11,  4.34310984E-15, -5.96144270E+02,
                       1.12732655E-01])))

species(name=u'C8H12(134)',
        atoms='H:12 C:8',
        thermo=(NASA([100.00, 1002.94],
                     [ 1.69489980E-02,  7.28189377E-02, -2.16585698E-05,
                      -2.40807783E-08,  1.44597041E-11,  1.38562447E+04,
                       3.07679077E+01]),
                NASA([1002.94, 5000.00],
                     [ 1.77276883E+01,  3.45993801E-02, -1.29781828E-05,
                       2.37500136E-09, -1.67643536E-13,  8.67334638E+03,
                      -6.28559377E+01])))

species(name=u'C6H10(158)',
        atoms='H:10 C:6',
        thermo=(NASA([100.00, 1020.63],
                     [ 9.97427413E-01,  5.59777045E-02, -2.05880600E-05,
                      -1.17182304E-08,  8.13452041E-12,  6.30749855E+03,
                       2.38941836E+01]),
                NASA([1020.63, 5000.00],
                     [ 1.33828218E+01,  2.83661253E-02, -1.07663110E-05,
                       1.95749020E-09, -1.36589418E-13,  2.68926840E+03,
                      -4.14511818E+01])))

species(name=u'C8H14(165)',
        atoms='H:14 C:8',
        thermo=(NASA([100.00, 1014.29],
                     [-3.67121846E-01,  8.14233516E-02, -3.11110886E-05,
                      -1.65487757E-08,  1.19185866E-11, -3.02333684E+03,
                       3.00035003E+01]),
                NASA([1014.29, 5000.00],
                     [ 1.79686767E+01,  3.98264136E-02, -1.50150741E-05,
                       2.72531006E-09, -1.90287561E-13, -8.32275149E+03,
                      -6.65042554E+01])))

species(name=u'C4H8(187)',
        atoms='H:8 C:4',
        thermo=(NASA([100.00, 1061.33],
                     [ 2.52504770E+00,  2.64752782E-02,  7.08359238E-06,
                      -2.07731462E-08,  8.00430055E-12, -4.02607130E+03,
                       1.28857274E+01]),
                NASA([1061.33, 5000.00],
                     [ 6.48672669E+00,  2.49943921E-02, -9.83283171E-06,
                       1.79343299E-09, -1.24008235E-13, -5.62452310E+03,
                      -1.00316397E+01])))

species(name=u'CH4(413)',
        atoms='H:4 C:1',
        thermo=(NASA([100.00, 1084.12],
                     [ 4.20541524E+00, -5.35557362E-03,  2.51123265E-05,
                      -2.13762843E-08,  5.97523937E-12, -1.01619433E+04,
                      -9.21279283E-01]),
                NASA([1084.12, 5000.00],
                     [ 9.08265721E-01,  1.14540858E-02, -4.57173828E-06,
                       8.29191671E-10, -5.66314895E-14, -9.71997444E+03,
                       1.39930944E+01])))

species(name=u'C5H10(417)',
        atoms='H:10 C:5',
        thermo=(NASA([100.00, 1883.68],
                     [ 2.29195787E+00,  4.21076449E-02, -1.49304794E-05,
                      -1.22102583E-10,  5.99441346E-13, -4.98138150E+03,
                       1.67887076E+01]),
                NASA([1883.68, 5000.00],
                     [ 1.47438472E+01,  2.72460315E-02, -1.23172689E-05,
                       2.21660273E-09, -1.44084857E-13, -1.17269008E+04,
                      -5.66226025E+01])))

species(name=u'C5H10(419)',
        atoms='H:10 C:5',
        thermo=(NASA([100.00, 1065.88],
                     [ 1.83973645E+00,  3.88165649E-02,  3.95415802E-06,
                      -2.48620336E-08,  1.01608534E-11, -6.45875726E+03,
                       1.88194915E+01]),
                NASA([1065.88, 5000.00],
                     [ 8.87931728E+00,  3.15047857E-02, -1.26438740E-05,
                       2.33666558E-09, -1.63001335E-13, -9.04475166E+03,
                      -2.06827600E+01])))

species(name=u'C2H6(428)',
        atoms='H:6 C:2',
        thermo=(NASA([100.00, 1012.42],
                     [ 3.72239291E+00,  1.65083841E-03,  3.44175530E-05,
                      -3.76858229E-08,  1.24450657E-11, -1.15575901E+04,
                       4.68247999E+00]),
                NASA([1012.42, 5000.00],
                     [ 2.82848257E+00,  1.73040568E-02, -6.73334245E-06,
                       1.23742024E-09, -8.65676410E-14, -1.19978080E+04,
                       5.93811707E+00])))

species(name=u'S(1378)',
        atoms='H:14 C:8',
        thermo=(NASA([100.00, 999.32],
                     [-8.27296041E-02,  7.33926821E-02, -9.70961131E-06,
                      -3.77339221E-08,  1.91784792E-11, -2.27794802E+03,
                       3.16114703E+01]),
                NASA([999.32, 5000.00],
                     [ 1.74908493E+01,  3.99675318E-02, -1.49508424E-05,
                       2.72972667E-09, -1.92366979E-13, -7.63361766E+03,
                      -6.23819175E+01])))

species(name=u'X(1)',
        atoms='X:1',
        thermo=(NASA([100.00, 1554.80],
                     [ 7.10139498E-03, -4.25619522E-05,  8.98533016E-08,
                      -7.80193649E-11,  2.32465471E-14, -8.76101712E-01,
                      -3.11211229E-02]),
                NASA([1554.80, 5000.00],
                     [ 1.60299900E-01, -2.52235409E-04,  1.14181275E-07,
                      -1.21471653E-11,  3.85790025E-16, -7.08100885E+01,
                      -9.09527530E-01])))

species(name=u'HX(5)',
        atoms='H:1 X:1',
        thermo=(NASA([100.00, 952.91],
                     [-3.80965452E-01,  5.47228709E-03,  2.60912778E-06,
                      -9.64961980E-09,  4.63946753E-12,  2.18196270E+03,
                       1.01725550E+00]),
                NASA([952.91, 5000.00],
                     [ 2.80339655E+00, -5.41047017E-04,  4.99507978E-07,
                      -7.54963647E-11,  3.06772366E-15,  1.24121328E+03,
                      -1.59436787E+01])))

species(name=u'C2H3X(37)',
        atoms='H:3 C:2 X:1',
        thermo=(NASA([100.00, 928.62],
                     [ 3.83091018E+00, -8.76381562E-03,  6.97956896E-05,
                      -8.67969174E-08,  3.33218121E-11,  8.75012182E+02,
                      -1.81151753E+01]),
                NASA([928.62, 5000.00],
                     [ 8.78054562E+00,  1.92497720E-03,  8.25825014E-07,
                      -1.63749818E-10,  5.71728318E-15, -1.42439094E+03,
                      -4.90588618E+01])))

species(name=u'allylX(38)',
        atoms='H:5 C:3 X:1',
        thermo=(NASA([100.00, 937.34],
                     [ 3.44148119E+00, -3.47700003E-03,  8.25933681E-05,
                      -1.05556823E-07,  4.04445066E-11, -2.66682595E+03,
                      -6.88846669E+00]),
                NASA([937.34, 5000.00],
                     [ 9.98148902E+00,  8.92268754E-03, -1.75442587E-06,
                       3.12285771E-10, -2.84156572E-14, -5.66362359E+03,
                      -4.74626902E+01])))

species(name=u'CH3X(39)',
        atoms='H:3 C:1 X:1',
        thermo=(NASA([100.00, 848.30],
                     [-1.21090496E+00,  2.92390681E-02, -4.49011079E-05,
                       3.86009808E-08, -1.30361041E-11, -6.84550445E+03,
                       6.80939750E+00]),
                NASA([848.30, 5000.00],
                     [ 1.62290877E+00,  1.12987268E-02, -5.08316908E-06,
                       9.46833581E-10, -6.42885536E-14, -7.16156936E+03,
                      -5.42501059E+00])))

species(name=u'C2H5X(40)',
        atoms='H:5 C:2 X:1',
        thermo=(NASA([100.00, 803.81],
                     [-1.64625424E+00,  3.89626488E-02, -4.31128887E-05,
                       2.97076939E-08, -8.80222915E-12, -1.08291795E+04,
                       9.27323637E+00]),
                NASA([803.81, 5000.00],
                     [ 1.97598112E+00,  2.09382766E-02, -9.47916922E-06,
                       1.81392948E-09, -1.27206354E-13, -1.14115283E+04,
                      -7.41107956E+00])))

species(name=u'C4H7X(41)',
        atoms='H:7 C:4 X:1',
        thermo=(NASA([100.00, 971.02],
                     [ 2.64365035E+00,  1.79007589E-02,  4.24443189E-05,
                      -6.44028479E-08,  2.49593993E-11, -6.62353538E+03,
                      -6.69991651E+00]),
                NASA([971.02, 5000.00],
                     [ 9.25871667E+00,  2.04064152E-02, -7.39143670E-06,
                       1.37021231E-09, -9.94133357E-14, -9.31101951E+03,
                      -4.56426102E+01])))

species(name=u'C4H7X(42)',
        atoms='H:7 C:4 X:1',
        thermo=(NASA([100.00, 986.67],
                     [ 2.45798205E+00,  2.47217336E-02,  2.01285964E-05,
                      -4.02735564E-08,  1.62485845E-11,  1.77865167E+03,
                      -5.12991781E+00]),
                NASA([986.67, 5000.00],
                     [ 8.87898065E+00,  2.09043993E-02, -7.83851223E-06,
                       1.44076477E-09, -1.02346878E-13, -5.69704442E+02,
                      -4.15007572E+01])))

species(name=u'C4H7X(43)',
        atoms='H:7 C:4 X:1',
        thermo=(NASA([100.00, 965.06],
                     [ 2.56877619E+00,  1.97500674E-02,  3.72961301E-05,
                      -6.04017092E-08,  2.39989018E-11, -6.89495624E+03,
                      -8.56564322E+00]),
                NASA([965.06, 5000.00],
                     [ 9.89778724E+00,  1.86142959E-02, -6.38884453E-06,
                       1.17309353E-09, -8.55406646E-14, -9.67124745E+03,
                      -5.07182348E+01])))

species(name=u'C4H7X(44)',
        atoms='H:7 C:4 X:1',
        thermo=(NASA([100.00, 949.35],
                     [ 2.54254539E+00,  1.77389010E-02,  4.93877612E-05,
                      -7.72878178E-08,  3.10660019E-11, -5.66932294E+03,
                      -8.46783968E+00]),
                NASA([949.35, 5000.00],
                     [ 1.15220223E+01,  1.60005944E-02, -4.89823595E-06,
                       8.83972924E-10, -6.63710570E-14, -9.00085528E+03,
                      -5.98888028E+01])))

species(name=u'C3H5X(45)',
        atoms='H:5 C:3 X:1',
        thermo=(NASA([100.00, 939.06],
                     [ 3.23683359E+00,  3.73132320E-03,  6.01028900E-05,
                      -8.16245569E-08,  3.18536011E-11, -2.93822941E+03,
                      -1.35295467E+01]),
                NASA([939.06, 5000.00],
                     [ 9.70183185E+00,  9.48309646E-03, -2.25953763E-06,
                       3.98431327E-10, -3.27118882E-14, -5.62025834E+03,
                      -5.21282869E+01])))

species(name=u'C4H7X(46)',
        atoms='H:7 C:4 X:1',
        thermo=(NASA([100.00, 963.12],
                     [ 2.84102368E+00,  1.13895351E-02,  6.15506441E-05,
                      -8.44875974E-08,  3.21378540E-11, -6.86271478E+03,
                      -1.87433326E+00]),
                NASA([963.12, 5000.00],
                     [ 9.41784464E+00,  1.97004205E-02, -6.87716325E-06,
                       1.28327784E-09, -9.49057432E-14, -9.78189438E+03,
                      -4.19345048E+01])))

species(name=u'C4H7X(47)',
        atoms='H:7 C:4 X:1',
        thermo=(NASA([100.00, 984.27],
                     [ 2.62894525E+00,  1.98268868E-02,  3.32348848E-05,
                      -5.27966654E-08,  2.03669508E-11, -8.43159623E+03,
                      -9.11738219E+00]),
                NASA([984.27, 5000.00],
                     [ 8.50219213E+00,  2.14492211E-02, -8.08467087E-06,
                       1.50188932E-09, -1.07732976E-13, -1.08225273E+04,
                      -4.36317384E+01])))

species(name=u'C4H5X(80)',
        atoms='H:5 C:4 X:1',
        thermo=(NASA([100.00, 936.52],
                     [ 2.68471723E+00,  1.36244496E-02,  5.32591849E-05,
                      -8.32912448E-08,  3.41499374E-11,  2.96824237E+03,
                      -1.06510487E+01]),
                NASA([936.52, 5000.00],
                     [ 1.29012266E+01,  8.96921861E-03, -1.71920076E-06,
                       2.89744517E-10, -2.58686364E-14, -6.54796577E+02,
                      -6.83963397E+01])))

species(name=u'C4H5X(81)',
        atoms='H:5 C:4 X:1',
        thermo=(NASA([100.00, 928.63],
                     [ 2.64232495E+00,  8.31109593E-03,  8.12146261E-05,
                      -1.21398701E-07,  4.98630759E-11,  8.15115112E+03,
                      -1.03932963E+01]),
                NASA([928.63, 5000.00],
                     [ 1.69490474E+01,  2.00818812E-03,  2.03468841E-06,
                      -4.02657023E-10,  1.85400094E-14,  3.10865675E+03,
                      -9.11990785E+01])))

species(name=u'C6H9X(98)',
        atoms='H:9 C:6 X:1',
        thermo=(NASA([100.00, 959.61],
                     [ 9.97316280E-01,  5.45668000E-02, -1.20062319E-05,
                      -2.57197904E-08,  1.47243152E-11,  1.01755110E+04,
                       4.10405037E+00]),
                NASA([959.61, 5000.00],
                     [ 1.47073597E+01,  2.48050721E-02, -8.29407345E-06,
                       1.44239761E-09, -1.00346470E-13,  6.28331060E+03,
                      -6.80438434E+01])))

species(name=u'SX(110)',
        atoms='H:13 C:8 X:1',
        thermo=(NASA([100.00, 1006.92],
                     [ 6.30914034E-02,  6.93235141E-02, -6.44466409E-07,
                      -4.55410039E-08,  2.13948079E-11, -2.25811935E+02,
                       1.27242166E+01]),
                NASA([1006.92, 5000.00],
                     [ 1.72428523E+01,  4.01885162E-02, -1.55073190E-05,
                       2.87620836E-09, -2.04302005E-13, -5.66827076E+03,
                      -8.01222363E+01])))

species(name=u'C6H9X(115)',
        atoms='H:9 C:6 X:1',
        thermo=(NASA([100.00, 995.64],
                     [ 1.00158150E+00,  5.37831764E-02, -1.05077719E-05,
                      -2.52898569E-08,  1.36194364E-11,  9.65301784E+03,
                       4.73928304E+00]),
                NASA([995.64, 5000.00],
                     [ 1.48279675E+01,  2.56881420E-02, -9.53965888E-06,
                       1.75504791E-09, -1.24935257E-13,  5.53909289E+03,
                      -6.87379050E+01])))

species(name=u'SX(120)',
        atoms='H:11 C:8 X:1',
        thermo=(NASA([100.00, 970.37],
                     [ 5.31641954E-02,  6.71977456E-02,  4.47858696E-06,
                      -5.81672079E-08,  2.81723287E-11,  9.41927551E+03,
                       9.58558746E+00]),
                NASA([970.37, 5000.00],
                     [ 2.04532936E+01,  2.99983151E-02, -1.05049814E-05,
                       1.92652148E-09, -1.39848135E-13,  3.25237747E+03,
                      -9.95955081E+01])))

species(name=u'SX(121)',
        atoms='H:11 C:8 X:1',
        thermo=(NASA([100.00, 978.48],
                     [-2.03188429E-01,  8.00305318E-02, -4.14445349E-05,
                      -6.30400358E-09,  9.29379676E-12,  1.61618800E+04,
                       9.78673632E+00]),
                NASA([978.48, 5000.00],
                     [ 1.79003688E+01,  3.33652582E-02, -1.18215595E-05,
                       2.07054526E-09, -1.42297664E-13,  1.13102146E+04,
                      -8.38469152E+01])))

species(name=u'C4H7X(153)',
        atoms='H:7 C:4 X:1',
        thermo=(NASA([100.00, 947.75],
                     [ 2.86440387E+00,  8.12954614E-03,  7.59606536E-05,
                      -1.03618267E-07,  4.00694538E-11, -6.60469188E+03,
                      -2.40038485E+00]),
                NASA([947.75, 5000.00],
                     [ 1.10489656E+01,  1.63914163E-02, -4.86280875E-06,
                       8.89632629E-10, -6.85128174E-14, -1.00785081E+04,
                      -5.15890409E+01])))

species(name=u'C3H5X(181)',
        atoms='H:5 C:3 X:1',
        thermo=(NASA([100.00, 946.02],
                     [ 3.27693369E+00,  3.84253259E-03,  5.69854034E-05,
                      -7.61339325E-08,  2.92928923E-11, -4.72567880E+03,
                      -1.34283913E+01]),
                NASA([946.02, 5000.00],
                     [ 8.81692983E+00,  1.11131640E-02, -3.21294654E-06,
                       5.86623487E-10, -4.55861620E-14, -7.14739282E+03,
                      -4.71077607E+01])))

species(name=u'C4H7X(202)',
        atoms='H:7 C:4 X:1',
        thermo=(NASA([100.00, 962.63],
                     [ 2.47887263E+00,  2.17332659E-02,  3.35320149E-05,
                      -5.77937645E-08,  2.33911591E-11, -7.88650710E+03,
                      -9.53603980E+00]),
                NASA([962.63, 5000.00],
                     [ 1.04024523E+01,  1.79778222E-02, -6.06823265E-06,
                       1.10873893E-09, -8.09206532E-14, -1.07635079E+04,
                      -5.44807849E+01])))

species(name=u'SX(229)',
        atoms='H:13 C:8 X:1',
        thermo=(NASA([100.00, 989.07],
                     [-2.30716456E-01,  7.29914838E-02,  1.10688519E-06,
                      -5.50141711E-08,  2.64185866E-11, -2.85177009E+01,
                       1.01785093E+01]),
                NASA([989.07, 5000.00],
                     [ 2.04778053E+01,  3.59157732E-02, -1.34499893E-05,
                       2.50962579E-09, -1.81209759E-13, -6.40788279E+03,
                      -1.01041393E+02])))

species(name=u'C6H9X(247)',
        atoms='H:9 C:6 X:1',
        thermo=(NASA([100.00, 982.39],
                     [ 1.17199359E+00,  4.77160396E-02,  9.26098866E-06,
                      -4.64666332E-08,  2.11967020E-11,  1.93553932E+03,
                       1.23439845E+00]),
                NASA([982.39, 5000.00],
                     [ 1.50560256E+01,  2.55321029E-02, -9.31181137E-06,
                       1.72744250E-09, -1.24865395E-13, -2.44979726E+03,
                      -7.39370609E+01])))

species(name=u'C5H7X(249)',
        atoms='H:7 C:5 X:1',
        thermo=(NASA([100.00, 955.26],
                     [ 2.14807862E+00,  2.30471639E-02,  5.52785985E-05,
                      -8.99888281E-08,  3.64764303E-11,  3.61238095E+03,
                      -3.16802051E-01]),
                NASA([955.26, 5000.00],
                     [ 1.41485498E+01,  1.72239138E-02, -5.33809619E-06,
                       9.99788941E-10, -7.72182082E-14, -7.07374945E+02,
                      -6.82727003E+01])))

species(name=u'C6H9X(287)',
        atoms='H:9 C:6 X:1',
        thermo=(NASA([100.00, 963.89],
                     [ 1.36441256E+00,  3.75099032E-02,  4.64428330E-05,
                      -9.02254047E-08,  3.78060338E-11, -4.43131468E+03,
                      -1.08347523E+00]),
                NASA([963.89, 5000.00],
                     [ 1.75345551E+01,  2.11304921E-02, -7.00461741E-06,
                       1.33734030E-09, -1.02627510E-13, -9.90491252E+03,
                      -9.07235001E+01])))

species(name=u'C6H9X(288)',
        atoms='H:9 C:6 X:1',
        thermo=(NASA([100.00, 961.61],
                     [ 9.56162142E-01,  5.11594912E-02,  6.21920554E-06,
                      -4.93493283E-08,  2.38502949E-11,  2.44686667E+03,
                       7.62808957E-01]),
                NASA([961.61, 5000.00],
                     [ 1.73730683E+01,  2.12321143E-02, -6.93773963E-06,
                       1.25832417E-09, -9.23409490E-14, -2.48411148E+03,
                      -8.70188932E+01])))

species(name=u'C6H9X(289)',
        atoms='H:9 C:6 X:1',
        thermo=(NASA([100.00, 961.61],
                     [ 9.56162142E-01,  5.11594912E-02,  6.21920554E-06,
                      -4.93493283E-08,  2.38502949E-11,  2.44686667E+03,
                       7.62808957E-01]),
                NASA([961.61, 5000.00],
                     [ 1.73730683E+01,  2.12321143E-02, -6.93773963E-06,
                       1.25832417E-09, -9.23409490E-14, -2.48411148E+03,
                      -8.70188932E+01])))

species(name=u'C5H9X(414)',
        atoms='H:9 C:5 X:1',
        thermo=(NASA([100.00, 1369.42],
                     [ 1.97861638E+00,  3.94789775E-02, -4.19637600E-06,
                      -1.09554122E-08,  3.86524289E-12, -9.33198896E+03,
                      -4.11295928E+00]),
                NASA([1369.42, 5000.00],
                     [ 9.23627127E+00,  3.40242682E-02, -1.54673948E-05,
                       2.92731714E-09, -2.01895273E-13, -1.27960316E+04,
                      -4.67988627E+01])))

species(name=u'C5H9X(415)',
        atoms='H:9 C:5 X:1',
        thermo=(NASA([100.00, 931.58],
                     [ 1.90230471E+00,  3.12127776E-02,  4.07829153E-05,
                      -7.64606964E-08,  3.24764370E-11, -2.18123882E+03,
                       2.97075820E-01]),
                NASA([931.58, 5000.00],
                     [ 1.27946091E+01,  2.24504973E-02, -6.30596790E-06,
                       1.03250563E-09, -7.26473096E-14, -5.85984199E+03,
                      -6.03316247E+01])))

species(name=u'C6H9X(429)',
        atoms='H:9 C:6 X:1',
        thermo=(NASA([100.00, 973.86],
                     [ 9.93837756E-01,  5.22731950E-02, -2.04237505E-06,
                      -3.72834276E-08,  1.87182448E-11,  1.87307778E+03,
                       7.46169215E-01]),
                NASA([973.86, 5000.00],
                     [ 1.59749061E+01,  2.35119815E-02, -8.21905871E-06,
                       1.49896743E-09, -1.07947310E-13, -2.59885373E+03,
                      -7.91107508E+01])))

species(name=u'C6H9X(457)',
        atoms='H:9 C:6 X:1',
        thermo=(NASA([100.00, 944.03],
                     [ 1.50274111E+00,  3.39062369E-02,  5.74106466E-05,
                      -1.03068261E-07,  4.32458954E-11, -3.04140819E+03,
                       6.35756273E+00]),
                NASA([944.03, 5000.00],
                     [ 1.71767347E+01,  2.05443400E-02, -5.65216664E-06,
                       9.93357808E-10, -7.58667896E-14, -8.36471873E+03,
                      -8.08781643E+01])))

species(name=u'C6H9X(458)',
        atoms='H:9 C:6 X:1',