units(length='cm', time='s', quantity='mol', act_energy='kcal/mol')

ideal_gas(name='gas',
          elements="H D T C Ci O Oi N Ne Ar He Si S Cl X",
          species="""n-heptane   Ar          He          Ne
                     N2          C2H4(2)     C4H8-1(3)   C4H8-2(4)
                     C3H6(69)    H2(106)     C2H6(116)   C4H10(117)
                     C6H14(128)  C8H18(131)  C3H8(133)   C6H12(141)
                     C6H14(142)  C8H18(144)  C8H18(145)  C4H8(146)
                     C4H10(155)  C6H12(156)  C6H14(157)  C8H18(160)
                     C8H18(161)  C8H18(162)  C6H12(169)  C6H14(170)
                     C8H18(172)  C8H18(173)  C8H18(174)  C6H12(211)
                     C6H12(226)  C6H12(242)  C5H12(304)  C5H12(305)
                     C6H12(354)  C6H12(355)  C6H14(363)  C6H12(411)
                     C6H12(412)  C6H12(488)  C6H12(704)  C7H16(918)
                     C7H16(919)  C7H16(920)  S(1632)     S(2988)
                     S(2990)     S(2991)     S(3039)""",
          reactions='gas-*',
          initial_state=state(temperature=300.0, pressure=OneAtm))

ideal_interface(name='surface1',
                elements="H D T C Ci O Oi N Ne Ar He Si S Cl X",
                species="""X(1)        C2H3X(74)   HX(75)      CH3X(77)
                          C2H5X(78)   C4H7X(79)   C4H7X(80)   C4H7X(81)
                          C4H7X(82)   C4H9X(104)  C4H9X(105)  C2H2X(107)
                          SX(109)     SX(110)     CH2X(111)   C2H4X(112)
                          SX(113)     SX(114)     SX(115)     C3H7X(121)
                          C4H8X(122)  SX(123)     SX(125)     SX(126)
                          C4H9X(134)  C3H6X(135)  SX(137)     SX(138)
                          SX(139)     SX(140)     SX(143)     C4H9X(147)
                          C3H7X(149)  C4H8X(150)  SX(151)     SX(152)
                          SX(153)     SX(154)     SX(159)     C3H6X(164)
                          SX(165)     SX(166)     SX(167)     SX(192)
                          C4H7X(205)  SX(206)     C4H6X(236)  SX(237)
                          SX(271)     SX(272)     SX(273)     SX(274)
                          SX(275)     SX(276)     SX(277)     SX(278)
                          SX(279)     SX(280)     SX(307)     SX(309)
                          SX(313)     SX(332)     SX(356)     SX(382)
                          SX(383)     SX(387)     SX(415)     SX(441)
                          SX(465)     SX(491)     SX(540)     SX(601)
                          SX(602)     SX(633)     SX(636)     SX(667)
                          SX(742)     SX(827)     SX(829)     SX(844)
                          SX(922)     SX(924)     SX(926)     SX(937)
                          SX(938)     SX(940)     SX(941)     SX(954)
                          SX(957)     SX(971)     SX(973)     SX(1061)
                          SX(1062)    SX(1063)    SX(1103)    SX(1104)
                          SX(1191)    SX(1623)    SX(1625)    SX(1634)
                          SX(1662)    SX(1663)    SX(1925)    SX(2045)
                          SX(2303)    CHX(2510)   SX(2578)    SX(2583)
                          SX(2584)    SX(2587)    SX(2588)    SX(2689)
                          SX(2843)    SX(2844)    SX(3086)    SX(3140)
                          SX(4167)    SX(4295)    SX(4666)    SX(5344)
                          SX(6517)    SX(6855)    SX(7218)    SX(8579)""",
                site_density=2.72e-09,
                phases="gas",
          reactions='surface1-*',
                initial_state=state(temperature=300.0, pressure=OneAtm))

#-------------------------------------------------------------------------------
# Element data
#-------------------------------------------------------------------------------

element(symbol=u'X', atomic_mass=195.083)
element(symbol=u'Ci', atomic_mass=13.003)
element(symbol=u'D', atomic_mass=2.014)
element(symbol=u'Oi', atomic_mass=18.0)
element(symbol=u'T', atomic_mass=3.016)
#-------------------------------------------------------------------------------
# Species data
#-------------------------------------------------------------------------------

species(name=u'n-heptane',
        atoms='H:16 C:7',
        thermo=(NASA([100.00, 1262.75],
                     [-2.93512125E-03,  7.69375610E-02, -3.48031525E-05,
                       1.86160506E-09,  2.01550529E-12, -2.57829334E+04,
                       3.00312819E+01]),
                NASA([1262.75, 5000.00],
                     [ 1.38379971E+01,  4.85941816E-02, -1.95472819E-05,
                       3.52833289E-09, -2.39061569E-13, -3.05142526E+04,
                      -4.48654615E+01])))

species(name=u'Ar',
        atoms='Ar:1',
        thermo=(NASA([200.00, 1000.00],
                     [ 2.50000000E+00,  0.00000000E+00,  0.00000000E+00,
                       0.00000000E+00,  0.00000000E+00, -7.45375000E+02,
                       4.37967000E+00]),
                NASA([1000.00, 6000.00],
                     [ 2.50000000E+00,  0.00000000E+00,  0.00000000E+00,
                       0.00000000E+00,  0.00000000E+00, -7.45375000E+02,
                       4.37967000E+00])))

species(name=u'He',
        atoms='He:1',
        thermo=(NASA([200.00, 1000.00],
                     [ 2.50000000E+00,  0.00000000E+00,  0.00000000E+00,
                       0.00000000E+00,  0.00000000E+00, -7.45375000E+02,
                       9.28724000E-01]),
                NASA([1000.00, 6000.00],
                     [ 2.50000000E+00,  0.00000000E+00,  0.00000000E+00,
                       0.00000000E+00,  0.00000000E+00, -7.45375000E+02,
                       9.28724000E-01])))

species(name=u'Ne',
        atoms='Ne:1',
        thermo=(NASA([200.00, 1000.00],
                     [ 2.50000000E+00,  0.00000000E+00,  0.00000000E+00,
                       0.00000000E+00,  0.00000000E+00, -7.45375000E+02,
                       3.35532000E+00]),
                NASA([1000.00, 6000.00],
                     [ 2.50000000E+00,  0.00000000E+00,  0.00000000E+00,
                       0.00000000E+00,  0.00000000E+00, -7.45375000E+02,
                       3.35532000E+00])))

species(name=u'N2',
        atoms='N:2',
        thermo=(NASA([200.00, 1000.00],
                     [ 3.53101000E+00, -1.23661000E-04, -5.02999000E-07,
                       2.43531000E-09, -1.40881000E-12, -1.04698000E+03,
                       2.96747000E+00]),
                NASA([1000.00, 6000.00],
                     [ 2.95258000E+00,  1.39690000E-03, -4.92632000E-07,
                       7.86010000E-11, -4.60755000E-15, -9.23949000E+02,
                       5.87189000E+00])))

species(name=u'C2H4(2)',
        atoms='H:4 C:2',
        thermo=(NASA([100.00, 979.37],
                     [ 3.97469045E+00, -4.75813325E-03,  4.16772624E-05,
                      -4.51377676E-08,  1.54218287E-11,  4.91540855E+03,
                       3.62439976E+00]),
                NASA([979.37, 5000.00],
                     [ 3.55670229E+00,  1.10625819E-02, -4.17009559E-06,
                       7.85564219E-10, -5.70042086E-14,  4.32042473E+03,
                       2.17665377E+00])))

species(name=u'C4H8-1(3)',
        atoms='H:8 C:4',
        thermo=(NASA([100.00, 1007.28],
                     [ 2.58772978E+00,  2.32777883E-02,  1.93412653E-05,
                      -3.55496729E-08,  1.36906178E-11, -1.91872929E+03,
                       1.45750592E+01]),
                NASA([1007.28, 5000.00],
                     [ 7.20516863E+00,  2.36361619E-02, -9.03150325E-06,
                       1.65392736E-09, -1.16019318E-13, -3.79733809E+03,
                      -1.24426086E+01])))

species(name=u'C4H8-2(4)',
        atoms='H:8 C:4',
        thermo=(NASA([100.00, 1157.78],
                     [ 2.51999305E+00,  2.76811707E-02,  9.44135366E-07,
                      -1.25013222E-08,  4.67160311E-12, -3.34374810E+03,
                       1.30195268E+01]),
                NASA([1157.78, 5000.00],
                     [ 6.04218222E+00,  2.60073554E-02, -1.04844041E-05,
                       1.90882450E-09, -1.30601743E-13, -4.86273126E+03,
                      -7.52672501E+00])))

species(name=u'C3H6(69)',
        atoms='H:6 C:3',
        thermo=(NASA([100.00, 983.75],
                     [ 3.31912202E+00,  8.17957465E-03,  3.34736557E-05,
                      -4.36194260E-08,  1.58213614E-11,  7.49325285E+02,
                       9.54024700E+00]),
                NASA([983.75, 5000.00],
                     [ 5.36754789E+00,  1.70743084E-02, -6.35108004E-06,
                       1.16619619E-09, -8.27621023E-14, -4.87136723E+02,
                      -4.54465373E+00])))

species(name=u'H2(106)',
        atoms='H:2',
        thermo=(NASA([100.00, 1959.08],
                     [ 3.43536411E+00,  2.12710383E-04, -2.78625110E-07,
                       3.40267219E-10, -7.76032129E-14, -1.03135984E+03,
                      -3.90841731E+00]),
                NASA([1959.08, 5000.00],
                     [ 2.78816619E+00,  5.87640475E-04,  1.59010635E-07,
                      -5.52739465E-11,  4.34311304E-15, -5.96144481E+02,
                       1.12730527E-01])))

species(name=u'C2H6(116)',
        atoms='H:6 C:2',
        thermo=(NASA([100.00, 1012.42],
                     [ 3.72239308E+00,  1.65083640E-03,  3.44175601E-05,
                      -3.76858321E-08,  1.24450696E-11, -1.15575902E+04,
                       4.68247939E+00]),
                NASA([1012.42, 5000.00],
                     [ 2.82848184E+00,  1.73040581E-02, -6.73334315E-06,
                       1.23742041E-09, -8.65676548E-14, -1.19978077E+04,
                       5.93812118E+00])))

species(name=u'C4H10(117)',
        atoms='H:10 C:4',
        thermo=(NASA([100.00, 1147.60],
                     [ 2.16918887E+00,  3.43904101E-02, -1.61547012E-06,
                      -1.30728593E-08,  5.17358217E-12, -1.72505138E+04,
                       1.46546529E+01]),
                NASA([1147.60, 5000.00],
                     [ 6.78899599E+00,  3.03598725E-02, -1.21262363E-05,
                       2.19945742E-09, -1.50289895E-13, -1.91057812E+04,
                      -1.17327118E+01])))

species(name=u'C6H14(128)',
        atoms='H:14 C:6',
        thermo=(NASA([100.00, 1048.16],
                     [ 8.83613659E-01,  5.70448382E-02, -2.15470473E-06,
                      -2.85517584E-08,  1.26620792E-11, -2.27982669E+04,
                       2.50352013E+01]),
                NASA([1048.16, 5000.00],
                     [ 1.11353754E+01,  4.25244871E-02, -1.65830081E-05,
                       3.01866041E-09, -2.09014516E-13, -2.62988340E+04,
                      -3.13526859E+01])))

species(name=u'C8H18(131)',
        atoms='H:18 C:8',
        thermo=(NASA([100.00, 1950.39],
                     [-8.85253587E-01,  9.40525143E-02, -5.49401960E-05,
                       1.58319922E-08, -1.84186855E-12, -2.86089074E+04,
                       3.47833464E+01]),
                NASA([1950.39, 5000.00],
                     [ 2.30699838E+01,  4.49237902E-02, -1.71567330E-05,
                       2.91725666E-09, -1.86477736E-13, -3.79533943E+04,
                      -9.67898225E+01])))

species(name=u'C3H8(133)',
        atoms='H:8 C:3',
        thermo=(NASA([100.00, 989.99],
                     [ 3.06337235E+00,  1.29213276E-02,  3.47037401E-05,
                      -4.70952219E-08,  1.71386763E-11, -1.43905793E+04,
                       1.07835211E+01]),
                NASA([989.99, 5000.00],
                     [ 5.60435845E+00,  2.19529500E-02, -8.22084738E-06,
                       1.50104968E-09, -1.05636167E-13, -1.58393862E+04,
                      -6.22599672E+00])))

species(name=u'C6H12(141)',
        atoms='H:12 C:6',
        thermo=(NASA([100.00, 1018.92],
                     [ 1.21824397E+00,  4.88307070E-02,  8.49214055E-06,
                      -3.91884007E-08,  1.67100558E-11, -8.55522000E+03,
                       2.43075994E+01]),
                NASA([1018.92, 5000.00],
                     [ 1.16699416E+01,  3.59248568E-02, -1.39119411E-05,
                       2.55989045E-09, -1.79819725E-13, -1.21450638E+04,
                      -3.34759078E+01])))

species(name=u'C6H14(142)',
        atoms='H:14 C:6',
        thermo=(NASA([100.00, 1237.13],
                     [ 9.36168930E-01,  5.80634071E-02, -1.05209441E-05,
                      -1.36307211E-08,  5.73390960E-12, -2.34249395E+04,
                       2.40003868E+01]),
                NASA([1237.13, 5000.00],
                     [ 1.03163526E+01,  4.66435017E-02, -1.96012235E-05,
                       3.61723458E-09, -2.48218670E-13, -2.71928433E+04,
                      -2.90978404E+01])))

species(name=u'C8H18(144)',
        atoms='H:18 C:8',
        thermo=(NASA([100.00, 1206.86],
                     [-6.89615257E-01,  8.98708929E-02, -4.11360374E-05,
                       1.16648074E-09,  3.08108168E-12, -2.88987649E+04,
                       3.51508489E+01]),
                NASA([1206.86, 5000.00],
                     [ 1.56711907E+01,  5.50965154E-02, -2.20914879E-05,
                       4.00126504E-09, -2.72606211E-13, -3.42643832E+04,
                      -5.27256290E+01])))

species(name=u'C8H18(145)',
        atoms='H:18 C:8',
        thermo=(NASA([100.00, 1103.64],
                     [-5.78605151E-01,  8.63234831E-02, -2.81118082E-05,
                      -1.40867403E-08,  8.76028655E-12, -2.91838803E+04,
                       3.37703734E+01]),
                NASA([1103.64, 5000.00],
                     [ 1.53085484E+01,  5.52865795E-02, -2.20050747E-05,
                       4.01681338E-09, -2.77030603E-13, -3.43071919E+04,
                      -5.17664422E+01])))

species(name=u'C4H8(146)',
        atoms='H:8 C:4',
        thermo=(NASA([100.00, 1061.32],
                     [ 2.52506524E+00,  2.64750742E-02,  7.08428866E-06,
                      -2.07740178E-08,  8.00465619E-12, -4.02607206E+03,
                       1.28856643E+01]),
                NASA([1061.32, 5000.00],
                     [ 6.48663440E+00,  2.49945454E-02, -9.83291861E-06,
                       1.79345326E-09, -1.24009900E-13, -5.62448308E+03,
                      -1.00311177E+01])))

species(name=u'C4H10(155)',
        atoms='H:10 C:4',
        thermo=(NASA([100.00, 987.07],
                     [ 2.18595704E+00,  3.04310946E-02,  1.83394870E-05,
                      -4.04100111E-08,  1.64485852E-11, -1.82080415E+04,
                       1.37947067E+01]),
                NASA([987.07, 5000.00],
                     [ 8.84805025E+00,  2.61184111E-02, -9.57935748E-06,
                       1.72896615E-09, -1.21008029E-13, -2.06283373E+04,
                      -2.38572247E+01])))

species(name=u'C6H12(156)',
        atoms='H:12 C:6',
        thermo=(NASA([100.00, 727.96],
                     [ 9.39441039E-01,  7.36827155E-02, -7.88408288E-05,
                       6.61456924E-08, -2.57040239E-11, -8.86666118E+03,
                       2.10074368E+01]),
                NASA([727.96, 5000.00],
                     [ 3.15400003E+00,  5.47777335E-02, -2.60055303E-05,
                       5.04732885E-09, -3.55800736E-13, -9.01059172E+03,
                       1.22525773E+01])))

species(name=u'C6H14(157)',
        atoms='H:14 C:6',
        thermo=(NASA([100.00, 1002.80],
                     [ 9.62496218E-01,  5.35101546E-02,  1.32031263E-05,
                      -4.70259939E-08,  1.98553715E-11, -2.36936857E+04,
                       2.41378071E+01]),
                NASA([1002.80, 5000.00],
                     [ 1.14868354E+01,  4.22487190E-02, -1.59010293E-05,
                       2.86998539E-09, -1.99355079E-13, -2.73489714E+04,
                      -3.43665507E+01])))

species(name=u'C8H18(160)',
        atoms='H:18 C:8',
        thermo=(NASA([100.00, 1206.86],
                     [-6.89615257E-01,  8.98708929E-02, -4.11360374E-05,
                       1.16648074E-09,  3.08108168E-12, -2.93013401E+04,
                       3.44577017E+01]),
                NASA([1206.86, 5000.00],
                     [ 1.56711907E+01,  5.50965154E-02, -2.20914879E-05,
                       4.00126504E-09, -2.72606211E-13, -3.46669584E+04,
                      -5.34187762E+01])))

species(name=u'C8H18(161)',
        atoms='H:18 C:8',
        thermo=(NASA([100.00, 1103.64],
                     [-5.78605151E-01,  8.63234831E-02, -2.81118082E-05,
                      -1.40867403E-08,  8.76028655E-12, -2.95864554E+04,
                       3.37703734E+01]),
                NASA([1103.64, 5000.00],
                     [ 1.53085484E+01,  5.52865795E-02, -2.20050747E-05,
                       4.01681338E-09, -2.77030603E-13, -3.47097671E+04,
                      -5.17664422E+01])))

species(name=u'C8H18(162)',
        atoms='H:18 C:8',
        thermo=(NASA([100.00, 1103.64],
                     [-5.78605151E-01,  8.63234831E-02, -2.81118082E-05,
                      -1.40867403E-08,  8.76028655E-12, -2.99890306E+04,
                       3.23840790E+01]),
                NASA([1103.64, 5000.00],
                     [ 1.53085484E+01,  5.52865795E-02, -2.20050747E-05,
                       4.01681338E-09, -2.77030603E-13, -3.51123423E+04,
                      -5.31527366E+01])))

species(name=u'C6H12(169)',
        atoms='H:12 C:6',
        thermo=(NASA([100.00, 1083.88],
                     [ 1.36792050E+00,  4.60329646E-02,  1.03880539E-05,
                      -3.61559110E-08,  1.41148566E-11, -9.74154186E+03,
                       1.94333648E+01]),
                NASA([1083.88, 5000.00],
                     [ 1.07760956E+01,  3.82407598E-02, -1.60947986E-05,
                       3.05492336E-09, -2.16279178E-13, -1.33627503E+04,
                      -3.40101370E+01])))

species(name=u'C6H14(170)',
        atoms='H:14 C:6',
        thermo=(NASA([100.00, 999.59],
                     [ 1.13917006E+00,  5.18711187E-02,  1.51957332E-05,
                      -4.44289368E-08,  1.80496765E-11, -2.48256365E+04,
                       2.08096016E+01]),
                NASA([999.59, 5000.00],
                     [ 8.28876430E+00,  4.86580683E-02, -1.80935552E-05,
                       3.19042654E-09, -2.16942349E-13, -2.75237932E+04,
                      -2.00268176E+01])))

species(name=u'C8H18(172)',
        atoms='H:18 C:8',
        thermo=(NASA([100.00, 1100.04],
                     [-7.32822620E-01,  8.82673653E-02, -2.75774283E-05,
                      -1.74175602E-08,  1.02559411E-11, -3.03452640E+04,
                       3.15056767E+01]),
                NASA([1100.04, 5000.00],
                     [ 1.69619317E+01,  5.40402408E-02, -2.19705818E-05,
                       4.07148957E-09, -2.83726131E-13, -3.60603359E+04,
                      -6.38303446E+01])))

species(name=u'C8H18(173)',
        atoms='H:18 C:8',
        thermo=(NASA([100.00, 1056.45],
                     [-6.54889712E-01,  8.50322915E-02, -1.52854679E-05,
                      -3.22219394E-08,  1.59484713E-11, -3.02262472E+04,
                       3.09422447E+01]),
                NASA([1056.45, 5000.00],
                     [ 1.73312183E+01,  5.30881971E-02, -2.12661151E-05,
                       3.94784820E-09, -2.77020830E-13, -3.60441879E+04,
                      -6.63672725E+01])))

species(name=u'C8H18(174)',
        atoms='H:18 C:8',
        thermo=(NASA([100.00, 1056.45],
                     [-6.54889712E-01,  8.50322915E-02, -1.52854679E-05,
                      -3.22219394E-08,  1.59484713E-11, -3.02765691E+04,
                       3.02490975E+01]),
                NASA([1056.45, 5000.00],
                     [ 1.73312183E+01,  5.30881971E-02, -2.12661151E-05,
                       3.94784820E-09, -2.77020830E-13, -3.60945098E+04,
                      -6.70604197E+01])))

species(name=u'C6H12(211)',
        atoms='H:12 C:6',
        thermo=(NASA([100.00, 1083.88],
                     [ 1.36792050E+00,  4.60329646E-02,  1.03880539E-05,
                      -3.61559110E-08,  1.41148566E-11, -9.21215551E+03,
                       2.36684556E+01]),
                NASA([1083.88, 5000.00],
                     [ 1.07760956E+01,  3.82407598E-02, -1.60947986E-05,
                       3.05492336E-09, -2.16279178E-13, -1.28333639E+04,
                      -2.97750462E+01])))

species(name=u'C6H12(226)',
        atoms='H:12 C:6',
        thermo=(NASA([100.00, 1839.11],
                     [ 7.39765456E-01,  6.35836464E-02, -3.85035904E-05,
                       1.16726872E-08, -1.43916121E-12, -9.53996492E+03,
                       2.35193834E+01]),
                NASA([1839.11, 5000.00],
                     [ 1.56639500E+01,  3.11245826E-02, -1.20300125E-05,
                       2.07632194E-09, -1.34696993E-13, -1.50294956E+04,
                      -5.75744504E+01])))

species(name=u'C6H12(242)',
        atoms='H:12 C:6',
        thermo=(NASA([100.00, 3144.66],
                     [ 1.62486458E+00,  5.81706991E-02, -2.94074833E-05,
                       6.41454590E-09, -5.27512950E-13, -9.95070714E+03,
                       2.05730382E+01]),
                NASA([3144.66, 5000.00],
                     [ 2.63111437E+01,  2.09625560E-02, -8.88917459E-06,
                       1.47742097E-09, -8.83257986E-14, -2.26053361E+04,
                      -1.22241742E+02])))

species(name=u'C5H12(304)',
        atoms='H:12 C:5',
        thermo=(NASA([100.00, 1083.73],
                     [ 1.61171840E+00,  4.32471140E-02,  5.74844219E-06,
                      -2.75121475E-08,  1.08074793E-11, -2.00565280E+04,
                       1.98945417E+01]),
                NASA([1083.73, 5000.00],
                     [ 8.53699593E+00,  3.80811836E-02, -1.53301570E-05,
                       2.81974175E-09, -1.95504979E-13, -2.27552204E+04,
                      -1.95984354E+01])))

species(name=u'C5H12(305)',
        atoms='H:12 C:5',
        thermo=(NASA([100.00, 1035.90],
                     [ 1.72366154E+00,  4.01631085E-02,  1.63587863E-05,
                      -3.88306737E-08,  1.49772199E-11, -2.08560000E+04,
                       1.91511997E+01]),
                NASA([1035.90, 5000.00],
                     [ 7.87954528E+00,  3.91976340E-02, -1.52645480E-05,
                       2.77209178E-09, -1.91662206E-13, -2.33549587E+04,
                      -1.66703736E+01])))

species(name=u'C6H12(354)',
        atoms='H:12 C:6',
        thermo=(NASA([100.00, 1083.88],
                     [ 1.36792050E+00,  4.60329646E-02,  1.03880539E-05,
                      -3.61559110E-08,  1.41148566E-11, -1.08959262E+04,
                       2.21769146E+01]),
                NASA([1083.88, 5000.00],
                     [ 1.07760956E+01,  3.82407598E-02, -1.60947986E-05,
                       3.05492336E-09, -2.16279178E-13, -1.45171346E+04,
                      -3.12665872E+01])))

species(name=u'C6H12(355)',
        atoms='H:12 C:6',
        thermo=(NASA([100.00, 1083.88],
                     [ 1.36792050E+00,  4.60329646E-02,  1.03880539E-05,
                      -3.61559110E-08,  1.41148566E-11, -9.87388845E+03,
                       2.31435982E+01]),
                NASA([1083.88, 5000.00],
                     [ 1.07760956E+01,  3.82407598E-02, -1.60947986E-05,
                       3.05492336E-09, -2.16279178E-13, -1.34950968E+04,
                      -3.02999036E+01])))

species(name=u'C6H14(363)',
        atoms='H:14 C:6',
        thermo=(NASA([100.00, 979.31],
                     [ 1.15760846E+00,  4.88425844E-02,  2.64134963E-05,
                      -6.01100875E-08,  2.45805344E-11, -2.37935340E+04,
                       2.21623549E+01]),
                NASA([979.31, 5000.00],
                     [ 1.04141290E+01,  4.37548101E-02, -1.59117938E-05,
                       2.82121604E-09, -1.94532295E-13, -2.71755515E+04,
                      -3.03123408E+01])))

species(name=u'C6H12(411)',
        atoms='H:12 C:6',
        thermo=(NASA([100.00, 1698.32],
                     [ 1.59096309E+00,  5.26757966E-02, -1.83560662E-05,
                      -1.06687924E-09,  1.11258465E-12, -1.06220129E+04,
                       2.16531524E+01]),
                NASA([1698.32, 5000.00],
                     [ 1.44974887E+01,  3.62933219E-02, -1.62657874E-05,
                       2.97195174E-09, -1.97265691E-13, -1.70271902E+04,
                      -5.34000400E+01])))

species(name=u'C6H12(412)',
        atoms='H:12 C:6',
        thermo=(NASA([100.00, 1669.47],
                     [ 1.53174888E+00,  5.28581164E-02, -1.89680941E-05,
                      -7.62610687E-10,  1.08597762E-12, -9.44873766E+03,
                       2.14413917E+01]),
                NASA([1669.47, 5000.00],
                     [ 1.41704353E+01,  3.61100679E-02, -1.60801726E-05,
                       2.93999208E-09, -1.95631060E-13, -1.55547534E+04,
                      -5.16589683E+01])))

species(name=u'C6H12(488)',
        atoms='H:12 C:6',
        thermo=(NASA([100.00, 1917.59],
                     [ 2.29988559E+00,  4.93348058E-02, -1.39910600E-05,
                      -2.79392986E-09,  1.20742677E-12, -1.03230295E+04,
                       1.84312025E+01]),
                NASA([1917.59, 5000.00],
                     [ 1.85713833E+01,  3.37487534E-02, -1.61574143E-05,
                       2.95099503E-09, -1.92337797E-13, -1.99382403E+04,
                      -7.94628222E+01])))

species(name=u'C6H12(704)',
        atoms='H:12 C:6',
        thermo=(NASA([100.00, 1829.16],
                     [ 7.23497914E-01,  6.40962929E-02, -3.88937743E-05,
                       1.18285731E-08, -1.46479465E-12, -9.55473312E+03,
                       2.34752929E+01]),
                NASA([1829.16, 5000.00],
                     [ 1.55815815E+01,  3.16049577E-02, -1.22495189E-05,
                       2.11772642E-09, -1.37577832E-13, -1.49903398E+04,
                      -5.71786483E+01])))

species(name=u'C7H16(918)',
        atoms='H:16 C:7',
        thermo=(NASA([100.00, 1120.69],
                     [ 1.06339441E-01,  7.34420485E-02, -2.20939316E-05,
                      -1.28197412E-08,  7.39373000E-12, -2.64706183E+04,
                       2.93479114E+01]),
                NASA([1120.69, 5000.00],
                     [ 1.31589532E+01,  4.92569312E-02, -1.97080316E-05,
                       3.59805537E-09, -2.47725023E-13, -3.08030386E+04,
                      -4.13873036E+01])))

species(name=u'C7H16(919)',
        atoms='H:16 C:7',
        thermo=(NASA([100.00, 1120.69],
                     [ 1.06339441E-01,  7.34420485E-02, -2.20939316E-05,
                      -1.28197412E-08,  7.39373000E-12, -2.60680432E+04,
                       3.00410586E+01]),
                NASA([1120.69, 5000.00],
                     [ 1.31589532E+01,  4.92569312E-02, -1.97080316E-05,
                       3.59805537E-09, -2.47725023E-13, -3.04004634E+04,
                      -4.06941564E+01])))

species(name=u'C7H16(920)',
        atoms='H:16 C:7',
        thermo=(NASA([100.00, 1058.24],
                     [ 1.91139097E-01,  7.01355689E-02, -9.59848589E-06,
                      -2.78200245E-08,  1.31403865E-11, -2.71570618E+04,
                       2.73729298E+01]),
                NASA([1058.24, 5000.00],
                     [ 1.34327263E+01,  4.84568877E-02, -1.90870598E-05,
                       3.49343453E-09, -2.42554276E-13, -3.15482981E+04,
                      -4.47659009E+01])))

species(name=u'S(1632)',
        atoms='H:16 C:7',
        thermo=(NASA([100.00, 1058.24],
                     [ 1.91139097E-01,  7.01355689E-02, -9.59848589E-06,
                      -2.78200245E-08,  1.31403865E-11, -2.67544866E+04,
                       2.87592241E+01]),
                NASA([1058.24, 5000.00],
                     [ 1.34327263E+01,  4.84568877E-02, -1.90870598E-05,
                       3.49343453E-09, -2.42554276E-13, -3.11457230E+04,
                      -4.33796065E+01])))

species(name=u'S(2988)',
        atoms='H:20 C:9',
        thermo=(NASA([100.00, 1169.54],
                     [-1.37136072E+00,  1.02735800E-01, -4.71897827E-05,
                       6.76893887E-11,  4.32995692E-12, -3.24173566E+04,
                       3.88672038E+01]),
                NASA([1169.54, 5000.00],
                     [ 1.76224519E+01,  6.14285443E-02, -2.45492176E-05,
                       4.45569838E-09, -3.04732305E-13, -3.84779025E+04,
                      -6.26577603E+01])))

species(name=u'S(2990)',
        atoms='H:20 C:9',
        thermo=(NASA([100.00, 1169.54],
                     [-1.37136072E+00,  1.02735800E-01, -4.71897827E-05,
                       6.76893887E-11,  4.32995692E-12, -3.24173566E+04,
                       3.88672038E+01]),
                NASA([1169.54, 5000.00],
                     [ 1.76224519E+01,  6.14285443E-02, -2.45492176E-05,
                       4.45569838E-09, -3.04732305E-13, -3.84779025E+04,
                      -6.26577603E+01])))

species(name=u'S(2991)',
        atoms='H:20 C:9',
        thermo=(NASA([100.00, 1873.77],
                     [-1.70266047E+00,  1.08377050E-01, -6.54826611E-05,
                       1.97430901E-08, -2.40845114E-12, -3.21213104E+04,
                       4.03825967E+01]),
                NASA([1873.77, 5000.00],
                     [ 2.54104702E+01,  5.04977635E-02, -1.91488598E-05,
                       3.25804349E-09, -2.09003157E-13, -4.22820695E+04,
                      -1.07448356E+02])))

species(name=u'S(3039)',
        atoms='H:20 C:9',
        thermo=(NASA([100.00, 1091.22],
                     [-1.26270432E+00,  9.91925543E-02, -3.40756136E-05,
                      -1.54384214E-08,  1.01686853E-11, -3.31049004E+04,
                       3.74968196E+01]),
                NASA([1091.22, 5000.00],
                     [ 1.74734886E+01,  6.12930644E-02, -2.42899186E-05,