units(length='cm', time='s', quantity='mol', act_energy='kcal/mol')

ideal_gas(name='gas',
          elements="H D T C Ci O Oi N Ne Ar He Si S Cl X",
          species="""n-heptane  Ar         He         Ne         N2
                     C2H4(2)    C4H8-1(3)  C4H8-2(4)  C4H6(7)    H2(68)
                     C6H8(119)  S(205)     S(216)     S(276)     S(321)
                     S(404)     S(454)     S(530)     S(547)     C7H9(555)
                     S(569)     S(579)     S(609)     S(766)     S(949)
                     S(1012)    S(1083)    S(1240)    S(1375)    S(1379)
                     S(1393)    S(1497)    S(1498)    S(1566)    S(2163)
                     S(2232)    S(2357)    S(2447)    S(2620)    S(2676)
                     S(2902)    S(2906)    S(2977)    S(2978)    S(3251)
                     S(3351)    S(3365)    S(3416)    S(3666)    S(3843)
                     S(4103)""",
          reactions='gas-*',
          initial_state=state(temperature=300.0, pressure=OneAtm))

ideal_interface(name='surface1',
                elements="H D T C Ci O Oi N Ne Ar He Si S Cl X",
                species="""X(1)        HX(5)       C2H3X(37)   C4H5X(80)
                          C4H5X(81)   C6H7X(143)  SX(337)     SX(338)
                          SX(340)     SX(341)     SX(342)     SX(343)
                          SX(344)     SX(372)     SX(373)     SX(425)
                          SX(429)     SX(444)     SX(445)     SX(447)
                          SX(503)     SX(505)     SX(506)     SX(507)
                          SX(508)     SX(509)     SX(525)     SX(528)
                          SX(538)     SX(539)     C7H9X(541)  SX(601)
                          SX(699)     C5H7X(785)  SX(786)     SX(788)
                          SX(791)     SX(792)     SX(793)     SX(794)
                          SX(795)     SX(819)     SX(939)     SX(943)
                          SX(968)     SX(1105)    SX(1106)    SX(1224)
                          SX(1235)    SX(1238)    SX(1342)    SX(1344)
                          SX(1346)    SX(1348)    SX(1349)    SX(1386)
                          SX(1389)    SX(1390)    SX(1396)    SX(1406)
                          SX(1488)    SX(1492)    SX(1493)    SX(1586)
                          SX(1587)    SX(1594)    SX(1595)    SX(1717)
                          SX(1769)    SX(1770)    SX(1772)    SX(1774)
                          SX(1777)    SX(1939)    SX(1940)    SX(1941)
                          SX(1942)    SX(2044)    SX(2048)    SX(2206)
                          SX(2208)    SX(2209)    SX(2225)    SX(2311)
                          SX(2312)    SX(2314)    SX(2316)    SX(2416)
                          SX(2418)    SX(2551)    SX(2556)    SX(2557)
                          SX(2558)    SX(2766)    SX(2767)    SX(2847)
                          SX(2998)    SX(3353)    SX(3373)    SX(3653)
                          SX(3657)    SX(3770)    SX(3778)    SX(4007)
                          SX(4008)    SX(4009)    SX(4015)    SX(4104)
                          SX(4260)    SX(4263)""",
                site_density=2.72e-09,
                phases="gas",
          reactions='surface1-*',
                initial_state=state(temperature=300.0, pressure=OneAtm))

#-------------------------------------------------------------------------------
# Element data
#-------------------------------------------------------------------------------

element(symbol=u'X', atomic_mass=195.083)
element(symbol=u'Ci', atomic_mass=13.003)
element(symbol=u'D', atomic_mass=2.014)
element(symbol=u'Oi', atomic_mass=18.0)
element(symbol=u'T', atomic_mass=3.016)
#-------------------------------------------------------------------------------
# Species data
#-------------------------------------------------------------------------------

species(name=u'n-heptane',
        atoms='H:16 C:7',
        thermo=(NASA([100.00, 1262.73],
                     [-2.91681405E-03,  7.69373649E-02, -3.48025563E-05,
                       1.86095180E-09,  2.01573617E-12, -2.57829342E+04,
                       3.00312148E+01]),
                NASA([1262.73, 5000.00],
                     [ 1.38377915E+01,  4.85945016E-02, -1.95474548E-05,
                       3.52837178E-09, -2.39064676E-13, -3.05141556E+04,
                      -4.48642836E+01])))

species(name=u'Ar',
        atoms='Ar:1',
        thermo=(NASA([200.00, 1000.00],
                     [ 2.50000000E+00,  0.00000000E+00,  0.00000000E+00,
                       0.00000000E+00,  0.00000000E+00, -7.45375000E+02,
                       4.37967000E+00]),
                NASA([1000.00, 6000.00],
                     [ 2.50000000E+00,  0.00000000E+00,  0.00000000E+00,
                       0.00000000E+00,  0.00000000E+00, -7.45375000E+02,
                       4.37967000E+00])))

species(name=u'He',
        atoms='He:1',
        thermo=(NASA([200.00, 1000.00],
                     [ 2.50000000E+00,  0.00000000E+00,  0.00000000E+00,
                       0.00000000E+00,  0.00000000E+00, -7.45375000E+02,
                       9.28724000E-01]),
                NASA([1000.00, 6000.00],
                     [ 2.50000000E+00,  0.00000000E+00,  0.00000000E+00,
                       0.00000000E+00,  0.00000000E+00, -7.45375000E+02,
                       9.28724000E-01])))

species(name=u'Ne',
        atoms='Ne:1',
        thermo=(NASA([200.00, 1000.00],
                     [ 2.50000000E+00,  0.00000000E+00,  0.00000000E+00,
                       0.00000000E+00,  0.00000000E+00, -7.45375000E+02,
                       3.35532000E+00]),
                NASA([1000.00, 6000.00],
                     [ 2.50000000E+00,  0.00000000E+00,  0.00000000E+00,
                       0.00000000E+00,  0.00000000E+00, -7.45375000E+02,
                       3.35532000E+00])))

species(name=u'N2',
        atoms='N:2',
        thermo=(NASA([200.00, 1000.00],
                     [ 3.53101000E+00, -1.23661000E-04, -5.02999000E-07,
                       2.43531000E-09, -1.40881000E-12, -1.04698000E+03,
                       2.96747000E+00]),
                NASA([1000.00, 6000.00],
                     [ 2.95258000E+00,  1.39690000E-03, -4.92632000E-07,
                       7.86010000E-11, -4.60755000E-15, -9.23949000E+02,
                       5.87189000E+00])))

species(name=u'C2H4(2)',
        atoms='H:4 C:2',
        thermo=(NASA([100.00, 979.36],
                     [ 3.97471606E+00, -4.75844285E-03,  4.16783770E-05,
                      -4.51392516E-08,  1.54224761E-11,  4.91540746E+03,
                       3.62430844E+00]),
                NASA([979.36, 5000.00],
                     [ 3.55660610E+00,  1.10627464E-02, -4.17019079E-06,
                       7.85586770E-10, -5.70060829E-14,  4.32046489E+03,
                       2.17719479E+00])))

species(name=u'C4H8-1(3)',
        atoms='H:8 C:4',
        thermo=(NASA([100.00, 1007.28],
                     [ 2.58772906E+00,  2.32777969E-02,  1.93412349E-05,
                      -3.55496333E-08,  1.36906009E-11, -1.91872926E+03,
                       1.45750618E+01]),
                NASA([1007.28, 5000.00],
                     [ 7.20517168E+00,  2.36361568E-02, -9.03150028E-06,
                       1.65392666E-09, -1.16019260E-13, -3.79733937E+03,
                      -1.24426257E+01])))

species(name=u'C4H8-2(4)',
        atoms='H:8 C:4',
        thermo=(NASA([100.00, 1157.79],
                     [ 2.51998327E+00,  2.76812799E-02,  9.43783469E-07,
                      -1.25009101E-08,  4.67144666E-12, -3.34374767E+03,
                       1.30195623E+01]),
                NASA([1157.79, 5000.00],
                     [ 6.04225708E+00,  2.60072350E-02, -1.04843374E-05,
                       1.90880922E-09, -1.30600505E-13, -4.86276511E+03,
                      -7.52715109E+00])))

species(name=u'C4H6(7)',
        atoms='H:6 C:4',
        thermo=(NASA([100.00, 946.05],
                     [ 2.80599310E+00,  1.02584471E-02,  6.17260255E-05,
                      -9.01642687E-08,  3.59116961E-11,  1.16584972E+04,
                       1.20621434E+01]),
                NASA([946.05, 5000.00],
                     [ 1.24693720E+01,  1.00553901E-02, -2.41206872E-06,
                       4.57077303E-10, -3.93160571E-14,  8.01077795E+03,
                      -4.36374720E+01])))

species(name=u'H2(68)',
        atoms='H:2',
        thermo=(NASA([100.00, 1959.08],
                     [ 3.43536412E+00,  2.12710353E-04, -2.78625043E-07,
                       3.40267167E-10, -7.76031998E-14, -1.03135984E+03,
                      -3.90841732E+00]),
                NASA([1959.08, 5000.00],
                     [ 2.78816583E+00,  5.87640942E-04,  1.59010417E-07,
                      -5.52739026E-11,  4.34310984E-15, -5.96144270E+02,
                       1.12732655E-01])))

species(name=u'C6H8(119)',
        atoms='H:8 C:6',
        thermo=(NASA([100.00, 972.94],
                     [ 1.82686070E+00,  3.47046353E-02,  2.41070171E-05,
                      -5.44847920E-08,  2.29388832E-11,  1.99100661E+04,
                       1.81393315E+01]),
                NASA([972.94, 5000.00],
                     [ 1.21686202E+01,  2.40472785E-02, -8.58151834E-06,
                       1.57034031E-09, -1.12795334E-13,  1.63897115E+04,
                      -3.92195169E+01])))

species(name=u'S(205)',
        atoms='H:16 C:12',
        thermo=(NASA([100.00, 980.77],
                     [-2.21845665E+00,  1.15202302E-01, -4.46058253E-05,
                      -2.89292454E-08,  2.08193354E-11,  3.97133228E+04,
                       4.48687920E+01]),
                NASA([980.77, 5000.00],
                     [ 2.59409200E+01,  4.89148103E-02, -1.74910345E-05,
                       3.12129948E-09, -2.18247198E-13,  3.18543069E+04,
                      -1.02343316E+02])))

species(name=u'S(216)',
        atoms='H:16 C:12',
        thermo=(NASA([100.00, 989.29],
                     [-1.49871027E+00,  8.97231513E-02,  3.13728211E-05,
                      -1.05849951E-07,  4.65472901E-11,  2.08342656E+04,
                       3.86324941E+01]),
                NASA([989.29, 5000.00],
                     [ 2.71231573E+01,  4.82447418E-02, -1.83146882E-05,
                       3.49879125E-09, -2.57494969E-13,  1.15378770E+04,
                      -1.17506583E+02])))

species(name=u'S(276)',
        atoms='H:15 C:12',
        thermo=(NASA([100.00, 994.96],
                     [-9.10525753E-01,  7.23065908E-02,  7.86529115E-05,
                      -1.50118451E-07,  6.04728055E-11,  3.34535297E+04,
                       3.72742060E+01]),
                NASA([994.96, 5000.00],
                     [ 2.59409054E+01,  5.12026508E-02, -2.04595453E-05,
                       4.01923029E-09, -2.99921063E-13,  2.38116792E+04,
                      -1.13734786E+02])))

species(name=u'S(321)',
        atoms='H:16 C:12',
        thermo=(NASA([100.00, 1011.71],
                     [-1.20303342E+00,  8.13255676E-02,  5.51392531E-05,
                      -1.24057147E-07,  5.05122313E-11,  1.92626563E+04,
                       3.67681708E+01]),
                NASA([1011.71, 5000.00],
                     [ 2.55049272E+01,  5.47778999E-02, -2.26996210E-05,
                       4.46368808E-09, -3.29899575E-13,  9.81303791E+03,
                      -1.12386527E+02])))

species(name=u'S(404)',
        atoms='H:15 C:12',
        thermo=(NASA([100.00, 970.90],
                     [-1.71520867E+00,  9.95432566E-02, -4.74357209E-06,
                      -7.04390643E-08,  3.56211412E-11,  3.34415592E+04,
                       3.83477263E+01]),
                NASA([970.90, 5000.00],
                     [ 2.67411184E+01,  4.44003661E-02, -1.54835680E-05,
                       2.80861775E-09, -2.01631064E-13,  2.49892981E+04,
                      -1.13168941E+02])))

species(name=u'S(454)',
        atoms='H:13 C:10',
        thermo=(NASA([100.00, 976.25],
                     [ 2.44850415E-02,  5.63859714E-02,  7.92794649E-05,
                      -1.41928102E-07,  5.74393116E-11,  2.04708984E+04,
                       2.81369127E+01]),
                NASA([976.25, 5000.00],
                     [ 2.23687210E+01,  4.13694852E-02, -1.52419740E-05,
                       2.92184710E-09, -2.18042141E-13,  1.24610288E+04,
                      -9.78033799E+01])))

species(name=u'S(530)',
        atoms='H:16 C:12',
        thermo=(NASA([100.00, 990.94],
                     [-1.53673879E+00,  9.50296733E-02,  8.13325447E-06,
                      -7.82185025E-08,  3.63989841E-11,  2.10168816E+04,
                       3.81765950E+01]),
                NASA([990.94, 5000.00],
                     [ 2.49483558E+01,  5.05143791E-02, -1.89287732E-05,
                       3.52660923E-09, -2.53947844E-13,  1.27044184E+04,
                      -1.04814787E+02])))

species(name=u'S(547)',
        atoms='H:15 C:12',
        thermo=(NASA([100.00, 989.74],
                     [-1.06920106E+00,  8.65061190E-02,  1.75663536E-05,
                      -8.13090760E-08,  3.63222951E-11,  3.19614090E+04,
                       3.90682869E+01]),
                NASA([989.74, 5000.00],
                     [ 2.18995972E+01,  5.23509098E-02, -1.95909391E-05,
                       3.61476272E-09, -2.57905034E-13,  2.45410598E+04,
                      -8.60235913E+01])))

species(name=u'C7H9(555)',
        atoms='H:9 C:7',
        thermo=(NASA([100.00, 960.10],
                     [ 1.94183052E+00,  2.40649774E-02,  7.97952916E-05,
                      -1.18026725E-07,  4.61192248E-11,  2.16204187E+04,
                       2.19868571E+01]),
                NASA([960.10, 5000.00],
                     [ 1.38393996E+01,  2.78185296E-02, -9.37614248E-06,
                       1.73813373E-09, -1.29114199E-13,  1.68783004E+04,
                      -4.77260465E+01])))

species(name=u'S(569)',
        atoms='H:15 C:12',
        thermo=(NASA([100.00, 984.37],
                     [-5.37896420E-01,  6.91571916E-02,  6.78331849E-05,
                      -1.32481351E-07,  5.38778566E-11,  3.40474077E+04,
                       3.25829999E+01]),
                NASA([984.37, 5000.00],
                     [ 2.21119676E+01,  5.17760824E-02, -1.94438000E-05,
                       3.67256768E-09, -2.68128755E-13,  2.59711429E+04,
                      -9.47052603E+01])))

species(name=u'S(579)',
        atoms='H:15 C:12',
        thermo=(NASA([100.00, 1022.17],
                     [-1.28322346E+00,  9.57235521E-02, -1.62462134E-05,
                      -4.18919866E-08,  2.13315276E-11,  3.61410061E+04,
                       4.21072184E+01]),
                NASA([1022.17, 5000.00],
                     [ 2.05490546E+01,  5.47249965E-02, -2.12907385E-05,
                       3.92724114E-09, -2.76439244E-13,  2.93562980E+04,
                      -7.50550846E+01])))

species(name=u'S(609)',
        atoms='H:16 C:12',
        thermo=(NASA([100.00, 992.60],
                     [-2.02051020E+00,  1.08734835E-01, -2.89711942E-05,
                      -4.32763322E-08,  2.51062468E-11,  1.92512215E+04,
                       3.85793690E+01]),
                NASA([992.60, 5000.00],
                     [ 2.62576693E+01,  4.80482550E-02, -1.77622499E-05,
                       3.26163402E-09, -2.32284753E-13,  1.10132322E+04,
                      -1.10855289E+02])))

species(name=u'S(766)',
        atoms='H:16 C:12',
        thermo=(NASA([100.00, 1017.30],
                     [-1.37783040E+00,  9.57179772E-02, -6.63206008E-06,
                      -5.43503827E-08,  2.59767197E-11,  1.77712276E+04,
                       3.86198672E+01]),
                NASA([1017.30, 5000.00],
                     [ 2.15296154E+01,  5.58142930E-02, -2.17666534E-05,
                       4.04404362E-09, -2.86626411E-13,  1.05145499E+04,
                      -8.50471551E+01])))

species(name=u'S(949)',
        atoms='H:16 C:12',
        thermo=(NASA([100.00, 1078.36],
                     [-1.61970571E+00,  1.05214540E-01, -4.11673959E-05,
                      -1.44002695E-08,  1.09495624E-11,  2.19520729E+04,
                       4.17617609E+01]),
                NASA([1078.36, 5000.00],
                     [ 2.05968416E+01,  5.75124076E-02, -2.30905335E-05,
                       4.27008903E-09, -2.98137525E-13,  1.51426466E+04,
                      -7.64528084E+01])))

species(name=u'S(1012)',
        atoms='H:16 C:12',
        thermo=(NASA([100.00, 993.28],
                     [-1.35137518E+00,  9.16977743E-02,  1.24938962E-05,
                      -7.94514123E-08,  3.61313819E-11,  1.92067343E+04,
                       3.90926805E+01]),
                NASA([993.28, 5000.00],
                     [ 2.34678070E+01,  5.24020237E-02, -1.97584541E-05,
                       3.67211340E-09, -2.63243721E-13,  1.12842546E+04,
                      -9.55394156E+01])))

species(name=u'S(1083)',
        atoms='H:16 C:12',
        thermo=(NASA([100.00, 1033.56],
                     [-9.23720371E-01,  8.59160001E-02,  1.22267302E-05,
                      -6.62897958E-08,  2.82431977E-11,  2.01917322E+04,
                       3.83742872E+01]),
                NASA([1033.56, 5000.00],
                     [ 1.86400905E+01,  6.06715946E-02, -2.43822834E-05,
                       4.56855446E-09, -3.23794064E-13,  1.34519247E+04,
                      -6.96965348E+01])))

species(name=u'S(1240)',
        atoms='H:16 C:12',
        thermo=(NASA([100.00, 1013.91],
                     [-1.68456148E+00,  9.75829838E-02,  6.75024727E-06,
                      -7.54669033E-08,  3.43459639E-11,  1.64263299E+04,
                       3.41000436E+01]),
                NASA([1013.91, 5000.00],
                     [ 2.51858810E+01,  5.41893443E-02, -2.16834289E-05,
                       4.13524866E-09, -2.99152202E-13,  7.75908379E+03,
                      -1.11776692E+02])))

species(name=u'S(1375)',
        atoms='H:10 C:7',
        thermo=(NASA([100.00, 1013.93],
                     [ 1.13620462E+00,  5.07839825E-02,  1.86857674E-06,
                      -3.40292091E-08,  1.53985393E-11,  1.56009780E+04,
                       2.31184760E+01]),
                NASA([1013.93, 5000.00],
                     [ 1.25606010E+01,  3.32052103E-02, -1.27956037E-05,
                       2.35356470E-09, -1.65606655E-13,  1.18711633E+04,
                      -3.91241510E+01])))

species(name=u'S(1379)',
        atoms='H:12 C:9',
        thermo=(NASA([100.00, 1059.44],
                     [ 2.51173849E-01,  6.88557305E-02, -1.21546521E-05,
                      -2.53486165E-08,  1.24397390E-11,  2.41577643E+04,
                       2.93355522E+01]),
                NASA([1059.44, 5000.00],
                     [ 1.40740213E+01,  4.47797725E-02, -1.78707872E-05,
                       3.29539863E-09, -2.29928097E-13,  1.96511276E+04,
                      -4.55959333E+01])))

species(name=u'S(1393)',
        atoms='H:16 C:12',
        thermo=(NASA([100.00, 992.60],
                     [-2.02051020E+00,  1.08734835E-01, -2.89711942E-05,
                      -4.32763322E-08,  2.51062468E-11,  1.92512215E+04,
                       3.85793690E+01]),
                NASA([992.60, 5000.00],
                     [ 2.62576693E+01,  4.80482550E-02, -1.77622499E-05,
                       3.26163402E-09, -2.32284753E-13,  1.10132322E+04,
                      -1.10855289E+02])))

species(name=u'S(1497)',
        atoms='H:16 C:12',
        thermo=(NASA([100.00, 969.04],
                     [-1.95478964E+00,  1.02453263E-01, -8.56095212E-07,
                      -7.95139997E-08,  3.97379461E-11,  1.69217225E+04,
                       4.01869367E+01]),
                NASA([969.04, 5000.00],
                     [ 2.88554636E+01,  4.34086299E-02, -1.49263754E-05,
                       2.72412982E-09, -1.97713674E-13,  7.75146213E+03,
                      -1.23991791E+02])))

species(name=u'S(1498)',
        atoms='H:16 C:12',
        thermo=(NASA([100.00, 1031.59],
                     [-1.42875471E+00,  9.80843650E-02, -1.58163572E-05,
                      -4.32470871E-08,  2.16556326E-11,  2.17128853E+04,
                       3.80660407E+01]),
                NASA([1031.59, 5000.00],
                     [ 2.10974364E+01,  5.66708086E-02, -2.23869257E-05,
                       4.16172868E-09, -2.93911032E-13,  1.46213561E+04,
                      -8.31560974E+01])))

species(name=u'S(1566)',
        atoms='H:16 C:12',
        thermo=(NASA([100.00, 998.05],
                     [-1.52430887E+00,  9.66762025E-02, -1.33829094E-06,
                      -6.57485316E-08,  3.14332499E-11,  1.79065710E+04,
                       3.87629342E+01]),
                NASA([998.05, 5000.00],
                     [ 2.38129637E+01,  5.20255394E-02, -1.97432462E-05,
                       3.66493029E-09, -2.61866606E-13,  1.00152729E+04,
                      -9.76216451E+01])))

species(name=u'S(2163)',
        atoms='H:12 C:9',
        thermo=(NASA([100.00, 986.86],
                     [ 6.07975477E-01,  4.79090863E-02,  6.80642476E-05,
                      -1.20052014E-07,  4.79654524E-11,  2.03024052E+04,
                       2.96119123E+01]),
                NASA([986.86, 5000.00],
                     [ 1.96646167E+01,  3.62744095E-02, -1.39717395E-05,
                       2.73213344E-09, -2.04827040E-13,  1.33464498E+04,
                      -7.82595114E+01])))

species(name=u'S(2232)',
        atoms='H:12 C:9',
        thermo=(NASA([100.00, 984.67],
                     [ 5.75280777E-01,  5.28959644E-02,  4.62163973E-05,
                      -9.44456559E-08,  3.87324600E-11,  1.74092102E+04,
                       3.09925695E+01]),
                NASA([984.67, 5000.00],
                     [ 1.76261132E+01,  3.81119558E-02, -1.42572098E-05,
                       2.68963886E-09, -1.96256358E-13,  1.14101699E+04,
                      -6.44158495E+01])))

species(name=u'S(2357)',
        atoms='H:12 C:9',
        thermo=(NASA([100.00, 1012.48],
                     [ 5.54987535E-02,  7.06483940E-02, -8.23935034E-06,
                      -3.66920719E-08,  1.81701563E-11,  2.55809457E+04,
                       3.26556890E+01]),
                NASA([1012.48, 5000.00],
                     [ 1.69541337E+01,  3.96439259E-02, -1.52799252E-05,
                       2.82437176E-09, -1.99811965E-13,  2.03262856E+04,
                      -5.81308461E+01])))

species(name=u'S(2447)',
        atoms='H:15 C:12',
        thermo=(NASA([100.00, 992.27],
                     [-1.38340081E+00,  8.84602237E-02,  3.06336545E-05,
                      -1.02014839E-07,  4.45162985E-11,  3.06168321E+04,
                       3.52683180E+01]),
                NASA([992.27, 5000.00],
                     [ 2.55878851E+01,  5.06718152E-02, -1.94766159E-05,
                       3.69864365E-09, -2.69824719E-13,  2.17720278E+04,
                      -1.12240478E+02])))

species(name=u'S(2620)',
        atoms='H:14 C:11',
        thermo=(NASA([100.00, 1029.50],
                     [-7.24908482E-01,  8.46764283E-02, -9.09418191E-06,
                      -4.28644196E-08,  2.06680011E-11,  2.66181830E+04,
                       3.77894471E+01]),
                NASA([1029.50, 5000.00],
                     [ 1.90122299E+01,  4.99981332E-02, -1.97736518E-05,
                       3.68618989E-09, -2.60980161E-13,  2.03281519E+04,
                      -6.88164769E+01])))

species(name=u'S(2676)',
        atoms='H:14 C:11',
        thermo=(NASA([100.00, 968.61],
                     [-6.67705799E-01,  7.41584958E-02,  4.18358868E-05,
                      -1.10013340E-07,  4.80013258E-11,  2.36285360E+04,
                       3.45213010E+01]),
                NASA([968.61, 5000.00],
                     [ 2.42349580E+01,  4.08253388E-02, -1.41820185E-05,
                       2.62694287E-09, -1.92897229E-13,  1.55438415E+04,
                      -1.01656320E+02])))

species(name=u'S(2902)',
        atoms='H:16 C:12',
        thermo=(NASA([100.00, 1004.93],
                     [-1.86953211E+00,  1.06206677E-01, -2.64820787E-05,
                      -4.17090881E-08,  2.34551360E-11,  1.81015856E+04,
                       3.84629587E+01]),
                NASA([1004.93, 5000.00],
                     [ 2.47180269E+01,  5.08962835E-02, -1.93288938E-05,
                       3.56914595E-09, -2.53442808E-13,  1.02069855E+04,
                      -1.02629192E+02])))

species(name=u'S(2906)',
        atoms='H:15 C:12',
        thermo=(NASA([100.00, 1028.72],
                     [-1.38382926E+00,  9.83694651E-02, -2.29246245E-05,
                      -3.53241515E-08,  1.90513078E-11,  2.68413084E+04,
                       3.97493594E+01]),
                NASA([1028.72, 5000.00],
                     [ 2.08028799E+01,  5.47097642E-02, -2.13935573E-05,
                       3.94752855E-09, -2.77507283E-13,  2.00219302E+04,
                      -7.88751933E+01])))

species(name=u'S(2977)',
        atoms='H:16 C:12',
        thermo=(NASA([100.00, 1108.78],
                     [-1.83403471E+00,  1.10604735E-01, -5.48291523E-05,
                      -1.04446456E-09,  6.40255852E-12,  2.08564239E+04,
                       3.83969645E+01]),
                NASA([1108.78, 5000.00],
                     [ 2.13248215E+01,  5.70740339E-02, -2.30179773E-05,
                       4.24412032E-09, -2.94864290E-13,  1.38756972E+04,
                      -8.40429558E+01])))

species(name=u'S(2978)',
        atoms='H:16 C:12',
        thermo=(NASA([100.00, 994.24],
                     [-8.77714614E-01,  7.95766680E-02,  4.12622924E-05,
                      -1.04567943E-07,  4.37919587E-11,  2.13635169E+04,
                       3.87779820E+01]),
                NASA([994.24, 5000.00],
                     [ 2.16952477E+01,  5.47829300E-02, -2.09375569E-05,
                       3.92775475E-09, -2.83126795E-13,  1.36117993E+04,
                      -8.64033165E+01])))

species(name=u'S(3251)',
        atoms='H:14 C:11',
        thermo=(NASA([100.00, 1047.36],
                     [-8.28906148E-01,  8.87177507E-02, -2.22791017E-05,
                      -2.79517406E-08,  1.51683381E-11,  3.41376999E+04,
                       3.88702036E+01]),
                NASA([1047.36, 5000.00],
                     [ 1.84347777E+01,  5.12707026E-02, -2.03838025E-05,
                       3.77274299E-09, -2.64660812E-13,  2.81212119E+04,
                      -6.44158304E+01])))

species(name=u'S(3351)',
        atoms='H:14 C:11',
        thermo=(NASA([100.00, 993.98],
                     [-5.52028827E-01,  6.84655723E-02,  6.49011669E-05,
                      -1.30057609E-07,  5.28892308E-11,  4.23369387E+04,
                       3.30911499E+01]),
                NASA([993.98, 5000.00],
                     [ 2.38294869E+01,  4.70816598E-02, -1.86259544E-05,
                       3.63074170E-09, -2.69618839E-13,  3.36994352E+04,
                      -1.03455992E+02])))

species(name=u'S(3365)',
        atoms='H:15 C:11',
        thermo=(NASA([100.00, 983.18],
                     [-1.83379783E+00,  1.08313991E-01, -4.65471029E-05,
                      -2.23602872E-08,  1.79413456E-11,  2.98321091E+04,
                       4.22037586E+01]),
                NASA([983.18, 5000.00],
                     [ 2.51130108E+01,  4.33276991E-02, -1.55127089E-05,
                       2.78121279E-09, -1.95286335E-13,  2.23755989E+04,
                      -9.83154490E+01])))

species(name=u'S(3416)',
        atoms='H:14 C:12',
        thermo=(NASA([100.00, 1035.04],
                     [-1.26168706E+00,  9.45746777E-02, -1.95945365E-05,
                      -3.87782430E-08,  2.02315086E-11,  1.68119335E+04,
                       3.88808447E+01]),
                NASA([1035.04, 5000.00],
                     [ 2.21511587E+01,  4.94448892E-02, -1.99159384E-05,
                       3.76206338E-09, -2.68663474E-13,  9.53605811E+03,
                      -8.66139491E+01])))

species(name=u'S(3666)',
        atoms='H:16 C:11',
        thermo=(NASA([100.00, 1025.43],
                     [-2.16580454E+00,  1.17805373E-01, -7.17371965E-05,
                       5.89731094E-09,  7.03868955E-12,  1.56429316E+04,
                       4.18388967E+01]),
                NASA([1025.43, 5000.00],
                     [ 2.48394458E+01,  4.66278259E-02, -1.75945644E-05,
                       3.18837308E-09, -2.22176150E-13,  8.30831519E+03,
                      -9.78823400E+01])))

species(name=u'S(3843)',
        atoms='H:16 C:11',
        thermo=(NASA([100.00, 1198.32],
                     [-1.63488424E+00,  1.08352595E-01, -6.56149105E-05,
                       1.50967418E-08,  1.77925542E-13,  1.67866051E+04,
                       4.11441281E+01]),
                NASA([1198.32, 5000.00],
                     [ 2.03767779E+01,  5.40109806E-02, -2.15429655E-05,
                       3.90235445E-09, -2.66433854E-13,  1.01374451E+04,
                      -7.47637869E+01])))

species(name=u'S(4103)',
        atoms='H:12 C:9',
        thermo=(NASA([100.00, 992.49],
                     [ 5.26872549E-01,  4.86223353E-02,  7.49360963E-05,
                      -1.27302694E-07,  5.00799237E-11,  3.23570486E+04,
                       2.35604108E+01]),
                NASA([992.49, 5000.00],
                     [ 1.94456342E+01,  4.06266971E-02, -1.61323504E-05,
                       3.15775689E-09, -2.35233830E-13,  2.52401736E+04,
                      -8.45039308E+01])))

species(name=u'X(1)',
        atoms='X:1',
        thermo=(NASA([100.00, 1554.80],
                     [ 7.10139498E-03, -4.25619522E-05,  8.98533016E-08,
                      -7.80193649E-11,  2.32465471E-14, -8.76101712E-01,
                      -3.11211229E-02]),
                NASA([1554.80, 5000.00],