units(length='cm', time='s', quantity='mol', act_energy='kcal/mol')

ideal_gas(name='gas',
          elements="H D T C Ci O Oi N Ne Ar He Si S Cl X",
          species="""n-heptane   Ar          He          Ne
                     N2          C2H4(2)     C4H8-1(3)   C4H8-2(4)
                     C6H12q(75)  C6H12(90)   C4H8(96)    C6H12(149)
                     C6H12(200)  C6H12(202)  C6H12(277)  C8H16(347)
                     C6H12(540)  C6H12(541)  C6H12(666)  S(1063)
                     S(1065)     S(1333)     S(1479)""",
          transport='Mix',
          initial_state=state(temperature=300.0, pressure=OneAtm))

ideal_interface(name='surface1',
                elements="H D T C Ci O Oi N Ne Ar He Si S Cl X",
                species="""X(1)        HX(5)       C2H3X(27)   C2H5X(30)
                          C4H9X(44)   C4H9X(45)   C2H2X(49)   C2H4X(55)
                          C6H13X(56)  C6H13X(57)  C6H13X(58)  C2H3X(63)
                          C6H13X(71)  C6H13X(80)  C4H9X(84)   C6H13X(86)
                          C8H17X(89)  C4H9X(97)   C6H13X(99)  SX(109)
                          SX(124)     SX(125)     SX(150)     SX(203)
                          SX(278)     SX(317)     SX(318)     SX(343)
                          SX(667)     SX(1334)""",
                site_density=2.72e-09,
                phases="gas",
          reactions='all',
                initial_state=state(temperature=300.0, pressure=OneAtm))

#-------------------------------------------------------------------------------
# Element data
#-------------------------------------------------------------------------------

element(symbol=u'X', atomic_mass=195.083)
element(symbol=u'Ci', atomic_mass=13.003)
element(symbol=u'D', atomic_mass=2.014)
element(symbol=u'Oi', atomic_mass=18.0)
element(symbol=u'T', atomic_mass=3.016)
#-------------------------------------------------------------------------------
# Species data
#-------------------------------------------------------------------------------

species(name=u'n-heptane',
        atoms='H:16 C:7',
        thermo=(NASA([100.00, 1262.75],
                     [-2.93512125E-03,  7.69375610E-02, -3.48031525E-05,
                       1.86160506E-09,  2.01550529E-12, -2.57829334E+04,
                       3.00312819E+01]),
                NASA([1262.75, 5000.00],
                     [ 1.38379971E+01,  4.85941816E-02, -1.95472819E-05,
                       3.52833289E-09, -2.39061569E-13, -3.05142526E+04,
                      -4.48654615E+01])),
        transport=gas_transport(geom='nonlinear',
                                diam=6.366,
                                well_depth=402.997))

species(name=u'Ar',
        atoms='Ar:1',
        thermo=(NASA([200.00, 1000.00],
                     [ 2.50000000E+00,  0.00000000E+00,  0.00000000E+00,
                       0.00000000E+00,  0.00000000E+00, -7.45375000E+02,
                       4.37967000E+00]),
                NASA([1000.00, 6000.00],
                     [ 2.50000000E+00,  0.00000000E+00,  0.00000000E+00,
                       0.00000000E+00,  0.00000000E+00, -7.45375000E+02,
                       4.37967000E+00])),
        transport=gas_transport(geom='atom',
                                diam=3.33,
                                well_depth=136.5))

species(name=u'He',
        atoms='He:1',
        thermo=(NASA([200.00, 1000.00],
                     [ 2.50000000E+00,  0.00000000E+00,  0.00000000E+00,
                       0.00000000E+00,  0.00000000E+00, -7.45375000E+02,
                       9.28724000E-01]),
                NASA([1000.00, 6000.00],
                     [ 2.50000000E+00,  0.00000000E+00,  0.00000000E+00,
                       0.00000000E+00,  0.00000000E+00, -7.45375000E+02,
                       9.28724000E-01])),
        transport=gas_transport(geom='atom',
                                diam=2.576,
                                well_depth=10.2))

species(name=u'Ne',
        atoms='Ne:1',
        thermo=(NASA([200.00, 1000.00],
                     [ 2.50000000E+00,  0.00000000E+00,  0.00000000E+00,
                       0.00000000E+00,  0.00000000E+00, -7.45375000E+02,
                       3.35532000E+00]),
                NASA([1000.00, 6000.00],
                     [ 2.50000000E+00,  0.00000000E+00,  0.00000000E+00,
                       0.00000000E+00,  0.00000000E+00, -7.45375000E+02,
                       3.35532000E+00])),
        transport=gas_transport(geom='atom',
                                diam=3.758,
                                well_depth=148.6))

species(name=u'N2',
        atoms='N:2',
        thermo=(NASA([200.00, 1000.00],
                     [ 3.53101000E+00, -1.23661000E-04, -5.02999000E-07,
                       2.43531000E-09, -1.40881000E-12, -1.04698000E+03,
                       2.96747000E+00]),
                NASA([1000.00, 6000.00],
                     [ 2.95258000E+00,  1.39690000E-03, -4.92632000E-07,
                       7.86010000E-11, -4.60755000E-15, -9.23949000E+02,
                       5.87189000E+00])),
        transport=gas_transport(geom='linear',
                                diam=3.621,
                                well_depth=97.53,
                                polar=1.76,
                                rot_relax=4.0))

species(name=u'C2H4(2)',
        atoms='H:4 C:2',
        thermo=(NASA([100.00, 979.37],
                     [ 3.97469045E+00, -4.75813325E-03,  4.16772624E-05,
                      -4.51377676E-08,  1.54218287E-11,  4.91540855E+03,
                       3.62439976E+00]),
                NASA([979.37, 5000.00],
                     [ 3.55670229E+00,  1.10625819E-02, -4.17009559E-06,
                       7.85564219E-10, -5.70042086E-14,  4.32042473E+03,
                       2.17665377E+00])),
        transport=gas_transport(geom='nonlinear',
                                diam=3.971,
                                well_depth=280.8,
                                rot_relax=1.5))

species(name=u'C4H8-1(3)',
        atoms='H:8 C:4',
        thermo=(NASA([100.00, 1007.28],
                     [ 2.58772978E+00,  2.32777883E-02,  1.93412653E-05,
                      -3.55496729E-08,  1.36906178E-11, -1.91872929E+03,
                       1.45750592E+01]),
                NASA([1007.28, 5000.00],
                     [ 7.20516863E+00,  2.36361619E-02, -9.03150325E-06,
                       1.65392736E-09, -1.16019318E-13, -3.79733809E+03,
                      -1.24426086E+01])),
        transport=gas_transport(geom='nonlinear',
                                diam=5.176,
                                well_depth=357.002,
                                rot_relax=1.0))

species(name=u'C4H8-2(4)',
        atoms='H:8 C:4',
        thermo=(NASA([100.00, 1157.78],
                     [ 2.51999305E+00,  2.76811707E-02,  9.44135366E-07,
                      -1.25013222E-08,  4.67160311E-12, -3.34374810E+03,
                       1.30195268E+01]),
                NASA([1157.78, 5000.00],
                     [ 6.04218222E+00,  2.60073554E-02, -1.04844041E-05,
                       1.90882450E-09, -1.30601743E-13, -4.86273126E+03,
                      -7.52672501E+00])),
        transport=gas_transport(geom='nonlinear',
                                diam=5.289,
                                well_depth=359.053))

species(name=u'C6H12q(75)',
        atoms='H:12 C:6',
        thermo=(NASA([100.00, 2065.45],
                     [ 1.68598221E+00,  5.58664678E-02, -2.53058634E-05,
                       3.98022739E-09, -6.95050220E-14, -7.81739441E+03,
                       2.09920051E+01]),
                NASA([2065.45, 5000.00],
                     [ 2.13492441E+01,  2.79128048E-02, -1.23592816E-05,
                       2.17520184E-09, -1.38342160E-13, -1.81001612E+04,
                      -9.33636231E+01])),
        transport=gas_transport(geom='nonlinear',
                                diam=5.851,
                                well_depth=385.248))

species(name=u'C6H12(90)',
        atoms='H:12 C:6',
        thermo=(NASA([100.00, 1018.92],
                     [ 1.21824397E+00,  4.88307070E-02,  8.49214055E-06,
                      -3.91884007E-08,  1.67100558E-11, -8.55522000E+03,
                       2.43075994E+01]),
                NASA([1018.92, 5000.00],
                     [ 1.16699416E+01,  3.59248568E-02, -1.39119411E-05,
                       2.55989045E-09, -1.79819725E-13, -1.21450638E+04,
                      -3.34759078E+01])),
        transport=gas_transport(geom='nonlinear',
                                diam=5.884,
                                well_depth=388.064))

species(name=u'C4H8(96)',
        atoms='H:8 C:4',
        thermo=(NASA([100.00, 1061.32],
                     [ 2.52506524E+00,  2.64750742E-02,  7.08428866E-06,
                      -2.07740178E-08,  8.00465619E-12, -4.02607206E+03,
                       1.28856643E+01]),
                NASA([1061.32, 5000.00],
                     [ 6.48663440E+00,  2.49945454E-02, -9.83291861E-06,
                       1.79345326E-09, -1.24009900E-13, -5.62448308E+03,
                      -1.00311177E+01])),
        transport=gas_transport(geom='nonlinear',
                                diam=5.238,
                                well_depth=351.146))

species(name=u'C6H12(149)',
        atoms='H:12 C:6',
        thermo=(NASA([100.00, 1083.88],
                     [ 1.36792050E+00,  4.60329646E-02,  1.03880539E-05,
                      -3.61559110E-08,  1.41148566E-11, -9.21215551E+03,
                       2.36684556E+01]),
                NASA([1083.88, 5000.00],
                     [ 1.07760956E+01,  3.82407598E-02, -1.60947986E-05,
                       3.05492336E-09, -2.16279178E-13, -1.28333639E+04,
                      -2.97750462E+01])),
        transport=gas_transport(geom='nonlinear',
                                diam=5.876,
                                well_depth=387.836))

species(name=u'C6H12(200)',
        atoms='H:12 C:6',
        thermo=(NASA([100.00, 1839.11],
                     [ 7.39765456E-01,  6.35836464E-02, -3.85035904E-05,
                       1.16726872E-08, -1.43916121E-12, -9.53996492E+03,
                       2.35193834E+01]),
                NASA([1839.11, 5000.00],
                     [ 1.56639500E+01,  3.11245826E-02, -1.20300125E-05,
                       2.07632194E-09, -1.34696993E-13, -1.50294956E+04,
                      -5.75744504E+01])),
        transport=gas_transport(geom='nonlinear',
                                diam=5.925,
                                well_depth=395.365))

species(name=u'C6H12(202)',
        atoms='H:12 C:6',
        thermo=(NASA([100.00, 1829.16],
                     [ 7.23497914E-01,  6.40962929E-02, -3.88937743E-05,
                       1.18285731E-08, -1.46479465E-12, -9.55473312E+03,
                       2.34752929E+01]),
                NASA([1829.16, 5000.00],
                     [ 1.55815815E+01,  3.16049577E-02, -1.22495189E-05,
                       2.11772642E-09, -1.37577832E-13, -1.49903398E+04,
                      -5.71786483E+01])),
        transport=gas_transport(geom='nonlinear',
                                diam=5.925,
                                well_depth=395.365))

species(name=u'C6H12(277)',
        atoms='H:12 C:6',
        thermo=(NASA([100.00, 1917.59],
                     [ 2.29988559E+00,  4.93348058E-02, -1.39910600E-05,
                      -2.79392986E-09,  1.20742677E-12, -1.03230295E+04,
                       1.84312025E+01]),
                NASA([1917.59, 5000.00],
                     [ 1.85713833E+01,  3.37487534E-02, -1.61574143E-05,
                       2.95099503E-09, -1.92337797E-13, -1.99382403E+04,
                      -7.94628222E+01])),
        transport=gas_transport(geom='nonlinear',
                                diam=5.95,
                                well_depth=398.057))

species(name=u'C8H16(347)',
        atoms='H:16 C:8',
        thermo=(NASA([100.00, 1068.27],
                     [-3.86374064E-01,  8.02893229E-02, -1.79123367E-05,
                      -2.64445295E-08,  1.35802022E-11, -1.44829848E+04,
                       3.18030760E+01]),
                NASA([1068.27, 5000.00],
                     [ 1.69554410E+01,  4.84603141E-02, -1.97043533E-05,
                       3.68298149E-09, -2.59168868E-13, -2.00771135E+04,
                      -6.18477338E+01])),
        transport=gas_transport(geom='nonlinear',
                                diam=6.556,
                                well_depth=426.601))

species(name=u'C6H12(540)',
        atoms='H:12 C:6',
        thermo=(NASA([100.00, 1698.32],
                     [ 1.59096309E+00,  5.26757966E-02, -1.83560662E-05,
                      -1.06687924E-09,  1.11258465E-12, -1.06220129E+04,
                       2.16531524E+01]),
                NASA([1698.32, 5000.00],
                     [ 1.44974887E+01,  3.62933219E-02, -1.62657874E-05,
                       2.97195174E-09, -1.97265691E-13, -1.70271902E+04,
                      -5.34000400E+01])),
        transport=gas_transport(geom='nonlinear',
                                diam=5.95,
                                well_depth=398.057))

species(name=u'C6H12(541)',
        atoms='H:12 C:6',
        thermo=(NASA([100.00, 3144.66],
                     [ 1.62486458E+00,  5.81706991E-02, -2.94074833E-05,
                       6.41454590E-09, -5.27512950E-13, -9.95070714E+03,
                       2.05730382E+01]),
                NASA([3144.66, 5000.00],
                     [ 2.63111437E+01,  2.09625560E-02, -8.88917459E-06,
                       1.47742097E-09, -8.83257986E-14, -2.26053361E+04,
                      -1.22241742E+02])),
        transport=gas_transport(geom='nonlinear',
                                diam=5.876,
                                well_depth=387.836))

species(name=u'C6H12(666)',
        atoms='H:12 C:6',
        thermo=(NASA([100.00, 1669.47],
                     [ 1.53174888E+00,  5.28581164E-02, -1.89680941E-05,
                      -7.62610687E-10,  1.08597762E-12, -9.44873766E+03,
                       2.14413917E+01]),
                NASA([1669.47, 5000.00],
                     [ 1.41704353E+01,  3.61100679E-02, -1.60801726E-05,
                       2.93999208E-09, -1.95631060E-13, -1.55547534E+04,
                      -5.16589683E+01])),
        transport=gas_transport(geom='nonlinear',
                                diam=5.959,
                                well_depth=398.308))

species(name=u'S(1063)',
        atoms='H:16 C:8',
        thermo=(NASA([100.00, 1769.25],
                     [-4.28292121E-01,  8.85244980E-02, -5.42905375E-05,
                       1.68301934E-08, -2.14054693E-12, -1.82717116E+04,
                       3.08382275E+01]),
                NASA([1769.25, 5000.00],
                     [ 1.85303805E+01,  4.56621437E-02, -1.79513356E-05,
                       3.13739455E-09, -2.05727937E-13, -2.49802795E+04,
                      -7.14435055E+01])),
        transport=gas_transport(geom='nonlinear',
                                diam=6.603,
                                well_depth=435.36))

species(name=u'S(1065)',
        atoms='H:16 C:8',
        thermo=(NASA([100.00, 1867.08],
                     [-6.70205334E-01,  8.83974286E-02, -5.34450016E-05,
                       1.61777334E-08, -1.98265575E-12, -1.70126290E+04,
                       3.36977758E+01]),
                NASA([1867.08, 5000.00],
                     [ 2.13798408E+01,  4.11577946E-02, -1.54929889E-05,
                       2.62644518E-09, -1.68153050E-13, -2.52464699E+04,
                      -8.64484663E+01])),
        transport=gas_transport(geom='nonlinear',
                                diam=6.611,
                                well_depth=435.605))

species(name=u'S(1333)',
        atoms='H:12 C:6',
        thermo=(NASA([100.00, 1083.88],
                     [ 1.36792050E+00,  4.60329646E-02,  1.03880539E-05,
                      -3.61559110E-08,  1.41148566E-11, -9.87388845E+03,
                       2.31435982E+01]),
                NASA([1083.88, 5000.00],
                     [ 1.07760956E+01,  3.82407598E-02, -1.60947986E-05,
                       3.05492336E-09, -2.16279178E-13, -1.34950968E+04,
                      -3.02999036E+01])),
        transport=gas_transport(geom='nonlinear',
                                diam=5.909,
                                well_depth=390.747))

species(name=u'S(1479)',
        atoms='H:12 C:6',
        thermo=(NASA([100.00, 1083.88],
                     [ 1.36792050E+00,  4.60329646E-02,  1.03880539E-05,
                      -3.61559110E-08,  1.41148566E-11, -1.08959262E+04,
                       2.21769146E+01]),
                NASA([1083.88, 5000.00],
                     [ 1.07760956E+01,  3.82407598E-02, -1.60947986E-05,
                       3.05492336E-09, -2.16279178E-13, -1.45171346E+04,
                      -3.12665872E+01])),
        transport=gas_transport(geom='nonlinear',
                                diam=5.976,
                                well_depth=400.833))

species(name=u'X(1)',
        atoms='X:1',
        thermo=(NASA([100.00, 1554.81],
                     [ 7.10134880E-03, -4.25615041E-05,  8.98521156E-08,
                      -7.80182565E-11,  2.32462166E-14, -8.76099414E-01,
                      -3.11209498E-02]),
                NASA([1554.81, 5000.00],
                     [ 1.60301287E-01, -2.52237396E-04,  1.14182282E-07,
                      -1.21473809E-11,  3.85806589E-16, -7.08108147E+01,
                      -9.09535600E-01])))

species(name=u'HX(5)',
        atoms='H:1 X:1',
        thermo=(NASA([100.00, 952.91],
                     [-3.80957846E-01,  5.47219393E-03,  2.60946928E-06,
                      -9.65008412E-09,  4.63967474E-12, -1.52247970E+04,
                       1.01722845E+00]),
                NASA([952.91, 5000.00],
                     [ 2.80337105E+00, -5.41002993E-04,  4.99482316E-07,
                      -7.54902555E-11,  3.06721398E-15, -1.61655356E+04,
                      -1.59435356E+01])))

species(name=u'C2H3X(27)',
        atoms='H:3 C:2 X:1',
        thermo=(NASA([100.00, 928.60],
                     [ 3.83104022E+00, -8.76542826E-03,  6.98017027E-05,
                      -8.68052566E-08,  3.33256145E-11, -2.02611992E+03,
                      -1.81156365E+01]),
                NASA([928.60, 5000.00],
                     [ 8.78015372E+00,  1.92565992E-03,  8.25424482E-07,
                      -1.63654020E-10,  5.70926320E-15, -4.32535794E+03,
                      -4.90566656E+01])))

species(name=u'C2H5X(30)',
        atoms='H:5 C:2 X:1',
        thermo=(NASA([100.00, 803.89],
                     [-1.64624290E+00,  3.89625197E-02, -4.31124593E-05,
                       2.97071589E-08, -8.80200440E-12, -1.37303065E+04,
                       9.27319544E+00]),
                NASA([803.89, 5000.00],
                     [ 1.97599860E+00,  2.09382411E-02, -9.47914613E-06,
                       1.81392354E-09, -1.27205831E-13, -1.43126603E+04,
                      -7.41117371E+00])))

species(name=u'C4H9X(44)',
        atoms='H:9 C:4 X:1',
        thermo=(NASA([100.00, 1009.34],
                     [ 2.45384267E+00,  2.40992831E-02,  3.11016702E-05,
                      -4.95707962E-08,  1.85297228E-11, -1.78684369E+04,
                      -3.52852897E+00]),
                NASA([1009.34, 5000.00],
                     [ 7.52077606E+00,  2.82414636E-02, -1.10516169E-05,
                       2.04773827E-09, -1.44619150E-13, -2.01251301E+04,
                      -3.41327944E+01])))

species(name=u'C4H9X(45)',
        atoms='H:9 C:4 X:1',
        thermo=(NASA([100.00, 993.09],
                     [ 2.22649398E+00,  2.86530264E-02,  2.37815365E-05,
                      -4.60602647E-08,  1.82913397E-11, -1.65854214E+04,
                      -3.55142154E+00]),
                NASA([993.09, 5000.00],
                     [ 9.09062474E+00,  2.59568966E-02, -9.83403953E-06,
                       1.80637333E-09, -1.27731585E-13, -1.91791405E+04,
                      -4.28140174E+01])))

species(name=u'C2H2X(49)',
        atoms='H:2 C:2 X:1',
        thermo=(NASA([100.00, 1146.92],
                     [-1.35665820E+00,  2.85337846E-02, -3.11240302E-05,
                       1.70133631E-08, -3.63321309E-12, -9.60073602E+03,
                       3.79543002E+00]),
                NASA([1146.92, 5000.00],
                     [ 4.86808415E+00,  6.82426487E-03, -2.73109304E-06,
                       5.09412825E-10, -3.57465702E-14, -1.10285858E+04,
                      -2.70886136E+01])))

species(name=u'C2H4X(55)',
        atoms='H:4 C:2 X:1',
        thermo=(NASA([100.00, 922.95],
                     [-1.51743966E+00,  3.54364160E-02, -3.81055319E-05,
                       2.35706536E-08, -6.09806371E-12, -1.27134210E+04,
                       5.77181645E+00]),
                NASA([922.95, 5000.00],
                     [ 2.83447637E+00,  1.65755512E-02, -7.45246257E-06,
                       1.42931809E-09, -1.00637324E-13, -1.35167426E+04,
                      -1.48747324E+01])))

species(name=u'C6H13X(56)',
        atoms='H:13 C:6 X:1',
        thermo=(NASA([100.00, 1130.03],
                     [ 1.07506191E+00,  5.48323022E-02, -5.85590070E-06,
                      -1.87591600E-08,  7.94133363E-12, -2.36621159E+04,
                       6.68463407E+00]),
                NASA([1130.03, 5000.00],
                     [ 9.23604169E+00,  4.49491400E-02, -1.79634615E-05,
                       3.26617478E-09, -2.23871575E-13, -2.67199566E+04,
                      -3.90539292E+01])))

species(name=u'C6H13X(57)',
        atoms='H:13 C:6 X:1',
        thermo=(NASA([100.00, 1104.49],
                     [ 9.11727952E-01,  5.71187364E-02, -4.42099107E-06,
                      -2.31823222E-08,  9.89574697E-12, -2.29997141E+04,
                       4.93078500E+00]),
                NASA([1104.49, 5000.00],
                     [ 1.03932270E+01,  4.50091012E-02, -1.81629213E-05,
                       3.33344658E-09, -2.30372468E-13, -2.64499884E+04,
                      -4.78920572E+01])))

species(name=u'C6H13X(58)',
        atoms='H:13 C:6 X:1',
        thermo=(NASA([100.00, 1210.10],
                     [ 1.10829393E+00,  5.37305715E-02, -6.36959419E-07,
                      -2.23981043E-08,  8.32675983E-12, -2.42755681E+04,
                       5.70636748E+00]),
                NASA([1210.10, 5000.00],
                     [ 9.93886732E+00,  4.70613564E-02, -2.02855378E-05,
                       3.80586226E-09, -2.64097040E-13, -2.80616162E+04,
                      -4.53930264E+01])))

species(name=u'C2H3X(63)',
        atoms='H:3 C:2 X:1',
        thermo=(NASA([100.00, 808.69],
                     [-1.45264836E+00,  3.42706810E-02, -4.40841426E-05,
                       3.22606409E-08, -9.67619190E-12, -2.19539938E+04,
                       5.13281617E+00]),
                NASA([808.69, 5000.00],
                     [ 2.64803324E+00,  1.39871085E-02, -6.46021660E-06,
                       1.24353615E-09, -8.72724468E-14, -2.26172138E+04,
                      -1.37797660E+01])))

species(name=u'C6H13X(71)',
        atoms='H:13 C:6 X:1',
        thermo=(NASA([100.00, 1018.67],
                     [ 8.91751036E-01,  5.48140154E-02,  7.99759482E-06,
                      -4.21288976E-08,  1.81075951E-11, -2.23540554E+04,
                       6.55849940E+00]),
                NASA([1018.67, 5000.00],
                     [ 1.25016341E+01,  3.99739867E-02, -1.54271782E-05,
                       2.83248844E-09, -1.98681517E-13, -2.63147586E+04,
                      -5.74978768E+01])))

species(name=u'C6H13X(80)',
        atoms='H:13 C:6 X:1',
        thermo=(NASA([100.00, 1070.94],
                     [ 1.05705208E+00,  5.42066785E-02, -5.37442195E-07,
                      -2.66663280E-08,  1.12694888E-11, -2.36618602E+04,
                       6.91645288E+00]),
                NASA([1070.94, 5000.00],
                     [ 9.77792638E+00,  4.38845948E-02, -1.72450456E-05,
                       3.13468065E-09, -2.16071485E-13, -2.68057504E+04,
                      -4.17117237E+01])))

species(name=u'C4H9X(84)',
        atoms='H:9 C:4 X:1',
        thermo=(NASA([100.00, 971.26],
                     [ 2.18772549E+00,  2.80528346E-02,  2.95105615E-05,
                      -5.52418709E-08,  2.24097278E-11, -1.73625852E+04,
                      -4.38996343E+00]),
                NASA([971.26, 5000.00],
                     [ 1.02820855E+01,  2.36845850E-02, -8.47958598E-06,
                       1.54097260E-09, -1.09822817E-13, -2.03012440E+04,
                      -5.02382303E+01])))

species(name=u'C6H13X(86)',
        atoms='H:13 C:6 X:1',
        thermo=(NASA([100.00, 1140.27],
                     [ 9.41800086E-01,  5.59570190E-02, -1.23894799E-06,
                      -2.54816216E-08,  1.02021657E-11, -2.29807733E+04,
                       5.52622390E+00]),
                NASA([1140.27, 5000.00],
                     [ 1.08624593E+01,  4.53522162E-02, -1.91182639E-05,
                       3.58110702E-09, -2.49789766E-13, -2.68162378E+04,
                      -5.05350305E+01])))

species(name=u'C8H17X(89)',
        atoms='H:17 C:8 X:1',
        thermo=(NASA([100.00, 1100.89],
                     [-4.16879562E-01,  8.20615591E-02, -1.83490262E-05,
                      -2.28307645E-08,  1.13898334E-11, -3.00335525E+04,
                       1.55195721E+01]),
                NASA([1100.89, 5000.00],
                     [ 1.50204782E+01,  5.55771222E-02, -2.26022193E-05,
                       4.17299365E-09, -2.89775623E-13, -3.52265869E+04,
                      -6.85888310E+01])))

species(name=u'C4H9X(97)',
        atoms='H:9 C:4 X:1',
        thermo=(NASA([100.00, 1080.65],
                     [ 2.49983637E+00,  2.56086794E-02,  2.02167358E-05,
                      -3.35396814E-08,  1.17340118E-11, -1.97112611E+04,
                      -5.31068160E+00]),
                NASA([1080.65, 5000.00],
                     [ 5.84113944E+00,  3.13514690E-02, -1.28931226E-05,
                       2.39460188E-09, -1.66874948E-13, -2.14908889E+04,
                      -2.65824721E+01])))

species(name=u'C6H13X(99)',
        atoms='H:13 C:6 X:1',
        thermo=(NASA([100.00, 988.52],
                     [ 9.61294698E-01,  5.13754916E-02,  2.30924297E-05,
                      -6.03820501E-08,  2.52646508E-11, -2.32490599E+04,
                       5.00230567E+00]),
                NASA([988.52, 5000.00],
                     [ 1.29757774E+01,  3.94983750E-02, -1.46335076E-05,
                       2.65803612E-09, -1.86921498E-13, -2.74193791E+04,
                      -6.19011845E+01])))

species(name=u'SX(109)',
        atoms='H:13 C:6 X:1',
        thermo=(NASA([100.00, 1014.61],
                     [ 1.13916184E+00,  5.06470687E-02,  1.48415292E-05,
                      -4.50652749E-08,  1.83832069E-11, -2.45574315E+04,
                       5.31350787E+00]),
                NASA([1014.61, 5000.00],
                     [ 1.00366490E+01,  4.37573111E-02, -1.66449827E-05,
                       3.00472483E-09, -2.07925820E-13, -2.78138096E+04,
                      -4.48906928E+01])))

species(name=u'SX(124)',
        atoms='H:13 C:6 X:1',
        thermo=(NASA([100.00, 1190.76],
                     [ 9.15693015E-01,  5.89989950E-02, -1.57080816E-05,
                      -8.97595584E-09,  4.63839105E-12, -2.56381641E+04,
                       4.52517474E+00]),
                NASA([1190.76, 5000.00],
                     [ 9.59219391E+00,  4.53414845E-02, -1.80147109E-05,
                       3.23901424E-09, -2.19546419E-13, -2.88025591E+04,
                      -4.34595656E+01])))

species(name=u'SX(125)',
        atoms='H:13 C:6 X:1',
        thermo=(NASA([100.00, 987.94],
                     [ 1.09956664E+00,  5.19717579E-02,  1.64907435E-05,
                      -4.79147779E-08,  1.98350798E-11, -2.44107631E+04,
                       2.83840493E+00]),
                NASA([987.94, 5000.00],
                     [ 9.26916636E+00,  4.64876590E-02, -1.70778461E-05,
                       3.00857716E-09, -2.05236491E-13, -2.73715592E+04,
                      -4.32911697E+01])))

species(name=u'SX(150)',
        atoms='H:13 C:6 X:1',
        thermo=(NASA([100.00, 1734.41],
                     [ 1.33802988E+00,  5.81661566E-02, -2.03392665E-05,
                      -3.72821152E-10,  9.58301466E-13, -2.53884177E+04,
                       2.78707644E+00]),
                NASA([1734.41, 5000.00],
                     [ 1.46208175E+01,  4.12590665E-02, -1.75885124E-05,
                       3.13290245E-09, -2.04741314E-13, -3.20605610E+04,
                      -7.45609239E+01])))

species(name=u'SX(203)',
        atoms='H:13 C:6 X:1',
        thermo=(NASA([100.00, 961.91],
                     [ 9.54161096E-01,  5.21922856E-02,  2.14823179E-05,
                      -6.06760064E-08,  2.63164394E-11, -2.32689131E+04,
                       5.71566632E+00]),
                NASA([961.91, 5000.00],
                     [ 1.28735160E+01,  3.85846108E-02, -1.33704257E-05,
                       2.34128788E-09, -1.61994987E-13, -2.72255069E+04,
                      -5.99724509E+01])))

species(name=u'SX(278)',
        atoms='H:13 C:6 X:1',
        thermo=(NASA([100.00, 1015.12],
                     [ 1.10281627E+00,  4.95426158E-02,  2.18525980E-05,
                      -5.42475352E-08,  2.18086315E-11, -2.45429135E+04,
                       5.26541757E+00]),
                NASA([1015.12, 5000.00],
                     [ 1.13555344E+01,  4.22768679E-02, -1.63719269E-05,
                       3.01008347E-09, -2.11322445E-13, -2.83316637E+04,