units(length='cm', time='s', quantity='mol', act_energy='kcal/mol')

ideal_gas(name='gas',
          elements="H D T C Ci O Oi N Ne Ar He Si S Cl X",
          species="""n-heptane   Ar          He          Ne
                     N2          C2H4(2)     C4H8-1(3)   C4H8-2(4)
                     C4H6(7)     H2(68)      C4H6a(79)   C6H10(133)
                     C8H12(134)""",
          reactions='gas-*',
          initial_state=state(temperature=300.0, pressure=OneAtm))

ideal_interface(name='surface1',
                elements="H D T C Ci O Oi N Ne Ar He Si S Cl X",
                species="""X(1)        HX(5)       C2H3X(37)   C4H5X(80)
                          C4H5X(81)   C6H9X(98)   C6H9X(115)  SX(120)
                          SX(121)     C6H9X(124)  SX(185)     SX(187)
                          SX(190)     SX(296)     SX(323)     SX(335)
                          SX(336)     SX(337)     SX(339)     SX(382)
                          SX(383)     SX(387)     SX(392)     SX(393)
                          SX(397)     SX(412)     SX(417)     SX(423)
                          SX(424)     SX(432)     C6H9X(441)  C6H9X(457)
                          C6H9X(458)  C6H9X(459)  SX(466)     SX(467)
                          C6H9X(505)  SX(510)     SX(516)     SX(517)
                          C6H9X(527)  C6H9X(528)  SX(531)     SX(535)
                          SX(536)     SX(655)     SX(657)     SX(666)
                          SX(667)     SX(668)     SX(669)     SX(670)
                          SX(671)     SX(672)     SX(673)     SX(698)
                          SX(705)     SX(712)     SX(725)     SX(734)
                          SX(741)     SX(742)     SX(749)     SX(750)
                          SX(759)     SX(762)     SX(769)     SX(781)
                          SX(782)     SX(790)     SX(797)     SX(808)
                          SX(809)     SX(879)     SX(885)     SX(886)
                          SX(892)     SX(898)     SX(909)     SX(917)
                          SX(918)     SX(932)     SX(933)     SX(934)
                          SX(951)     SX(952)     SX(960)     SX(972)
                          SX(973)     SX(1076)    SX(1077)    SX(1078)
                          SX(1092)    SX(1093)    SX(1094)    SX(1097)
                          SX(1150)    SX(1151)    SX(1167)    SX(1168)
                          SX(1188)    SX(1202)    SX(1203)    SX(1218)
                          SX(1234)    SX(1235)    SX(1236)    SX(1262)
                          SX(1319)    SX(1391)    SX(1399)    SX(1400)
                          SX(1401)    SX(1402)    SX(1403)    SX(1410)
                          SX(1411)    SX(1419)    SX(1420)    SX(1421)
                          SX(1429)    SX(1430)    SX(1431)    SX(1439)
                          SX(1440)    SX(1450)    SX(1451)    SX(1472)
                          SX(1473)    SX(1485)    SX(1486)    SX(1495)
                          SX(1496)    SX(1497)    SX(1505)    SX(1506)
                          SX(1507)    SX(1517)    SX(1518)    SX(1525)
                          SX(1539)    SX(1540)    SX(1541)    SX(1553)
                          SX(1554)    SX(1555)    SX(1564)    SX(1565)
                          SX(1577)    SX(1587)    SX(1588)    SX(1597)
                          SX(1602)    SX(1603)    SX(1612)    SX(1613)
                          SX(1618)    SX(1624)    SX(1630)    SX(1631)
                          SX(1662)    SX(1686)    SX(1687)    SX(1711)
                          SX(1724)    SX(1725)    SX(1747)    SX(1748)
                          SX(1792)    SX(1793)    SX(1844)    SX(1850)
                          SX(1851)    SX(1856)    SX(1861)    SX(1872)
                          SX(1877)    SX(1888)    SX(1889)    SX(1890)
                          SX(1899)    SX(1900)    SX(1901)    SX(1906)
                          SX(1913)    SX(1914)    SX(1915)    SX(1919)
                          SX(1920)    SX(1927)    SX(1940)    SX(1941)
                          SX(1942)    SX(1950)    SX(1951)    SX(1958)
                          SX(1959)    SX(1964)    SX(1965)    SX(1966)
                          SX(1972)    SX(1973)    SX(1974)    SX(1991)
                          SX(1992)    SX(2001)    SX(2002)    SX(2003)
                          SX(2009)    SX(2010)    SX(2011)    SX(2016)
                          SX(2023)    SX(2024)    SX(2030)    SX(2035)
                          SX(2051)    SX(2060)    SX(2061)    SX(2068)
                          SX(2075)    SX(2076)    SX(2077)    SX(2082)
                          SX(2083)    SX(2084)    SX(2095)    SX(2096)
                          SX(2103)    SX(2104)    SX(2105)    SX(2108)
                          SX(2119)    SX(2120)    SX(2121)    SX(2136)
                          SX(2144)    SX(2145)    SX(2168)    SX(2169)
                          SX(2173)    SX(2174)    SX(2175)    SX(2189)
                          SX(2196)    SX(2206)    SX(2207)    SX(2256)
                          SX(2257)    SX(2263)    SX(2272)    SX(2274)
                          SX(2279)    SX(2280)    SX(2310)    SX(2311)
                          SX(2318)    SX(2333)    SX(2338)    SX(2339)
                          SX(2357)    SX(2358)    SX(2365)    SX(2372)
                          SX(2373)    SX(2374)    SX(2382)    SX(2383)
                          SX(2385)    SX(2390)    SX(2391)    SX(2403)
                          SX(2436)    SX(2437)    SX(2445)    SX(2447)
                          SX(2452)    SX(2453)    SX(2459)    SX(2460)
                          SX(2461)    SX(2477)    SX(2498)    SX(2510)
                          SX(2533)    SX(2534)    SX(2541)    SX(2548)
                          SX(2549)    SX(2550)    SX(2555)    SX(2556)
                          SX(2563)    SX(2564)    SX(2565)    SX(2578)
                          SX(2638)    SX(2639)    SX(2656)    SX(2657)
                          SX(2684)    SX(2713)    SX(2714)""",
                site_density=2.72e-09,
                phases="gas",
          reactions='surface1-*',
                initial_state=state(temperature=300.0, pressure=OneAtm))

#-------------------------------------------------------------------------------
# Element data
#-------------------------------------------------------------------------------

element(symbol=u'X', atomic_mass=195.083)
element(symbol=u'Ci', atomic_mass=13.003)
element(symbol=u'D', atomic_mass=2.014)
element(symbol=u'Oi', atomic_mass=18.0)
element(symbol=u'T', atomic_mass=3.016)
#-------------------------------------------------------------------------------
# Species data
#-------------------------------------------------------------------------------

species(name=u'n-heptane',
        atoms='H:16 C:7',
        thermo=(NASA([100.00, 1262.73],
                     [-2.91681405E-03,  7.69373649E-02, -3.48025563E-05,
                       1.86095180E-09,  2.01573617E-12, -2.57829342E+04,
                       3.00312148E+01]),
                NASA([1262.73, 5000.00],
                     [ 1.38377915E+01,  4.85945016E-02, -1.95474548E-05,
                       3.52837178E-09, -2.39064676E-13, -3.05141556E+04,
                      -4.48642836E+01])))

species(name=u'Ar',
        atoms='Ar:1',
        thermo=(NASA([200.00, 1000.00],
                     [ 2.50000000E+00,  0.00000000E+00,  0.00000000E+00,
                       0.00000000E+00,  0.00000000E+00, -7.45375000E+02,
                       4.37967000E+00]),
                NASA([1000.00, 6000.00],
                     [ 2.50000000E+00,  0.00000000E+00,  0.00000000E+00,
                       0.00000000E+00,  0.00000000E+00, -7.45375000E+02,
                       4.37967000E+00])))

species(name=u'He',
        atoms='He:1',
        thermo=(NASA([200.00, 1000.00],
                     [ 2.50000000E+00,  0.00000000E+00,  0.00000000E+00,
                       0.00000000E+00,  0.00000000E+00, -7.45375000E+02,
                       9.28724000E-01]),
                NASA([1000.00, 6000.00],
                     [ 2.50000000E+00,  0.00000000E+00,  0.00000000E+00,
                       0.00000000E+00,  0.00000000E+00, -7.45375000E+02,
                       9.28724000E-01])))

species(name=u'Ne',
        atoms='Ne:1',
        thermo=(NASA([200.00, 1000.00],
                     [ 2.50000000E+00,  0.00000000E+00,  0.00000000E+00,
                       0.00000000E+00,  0.00000000E+00, -7.45375000E+02,
                       3.35532000E+00]),
                NASA([1000.00, 6000.00],
                     [ 2.50000000E+00,  0.00000000E+00,  0.00000000E+00,
                       0.00000000E+00,  0.00000000E+00, -7.45375000E+02,
                       3.35532000E+00])))

species(name=u'N2',
        atoms='N:2',
        thermo=(NASA([200.00, 1000.00],
                     [ 3.53101000E+00, -1.23661000E-04, -5.02999000E-07,
                       2.43531000E-09, -1.40881000E-12, -1.04698000E+03,
                       2.96747000E+00]),
                NASA([1000.00, 6000.00],
                     [ 2.95258000E+00,  1.39690000E-03, -4.92632000E-07,
                       7.86010000E-11, -4.60755000E-15, -9.23949000E+02,
                       5.87189000E+00])))

species(name=u'C2H4(2)',
        atoms='H:4 C:2',
        thermo=(NASA([100.00, 979.36],
                     [ 3.97471606E+00, -4.75844285E-03,  4.16783770E-05,
                      -4.51392516E-08,  1.54224761E-11,  4.91540746E+03,
                       3.62430844E+00]),
                NASA([979.36, 5000.00],
                     [ 3.55660610E+00,  1.10627464E-02, -4.17019079E-06,
                       7.85586770E-10, -5.70060829E-14,  4.32046489E+03,
                       2.17719479E+00])))

species(name=u'C4H8-1(3)',
        atoms='H:8 C:4',
        thermo=(NASA([100.00, 1007.28],
                     [ 2.58772906E+00,  2.32777969E-02,  1.93412349E-05,
                      -3.55496333E-08,  1.36906009E-11, -1.91872926E+03,
                       1.45750618E+01]),
                NASA([1007.28, 5000.00],
                     [ 7.20517168E+00,  2.36361568E-02, -9.03150028E-06,
                       1.65392666E-09, -1.16019260E-13, -3.79733937E+03,
                      -1.24426257E+01])))

species(name=u'C4H8-2(4)',
        atoms='H:8 C:4',
        thermo=(NASA([100.00, 1157.79],
                     [ 2.51998327E+00,  2.76812799E-02,  9.43783469E-07,
                      -1.25009101E-08,  4.67144666E-12, -3.34374767E+03,
                       1.30195623E+01]),
                NASA([1157.79, 5000.00],
                     [ 6.04225708E+00,  2.60072350E-02, -1.04843374E-05,
                       1.90880922E-09, -1.30600505E-13, -4.86276511E+03,
                      -7.52715109E+00])))

species(name=u'C4H6(7)',
        atoms='H:6 C:4',
        thermo=(NASA([100.00, 946.05],
                     [ 2.80599310E+00,  1.02584471E-02,  6.17260255E-05,
                      -9.01642687E-08,  3.59116961E-11,  1.16584972E+04,
                       1.20621434E+01]),
                NASA([946.05, 5000.00],
                     [ 1.24693720E+01,  1.00553901E-02, -2.41206872E-06,
                       4.57077303E-10, -3.93160571E-14,  8.01077795E+03,
                      -4.36374720E+01])))

species(name=u'H2(68)',
        atoms='H:2',
        thermo=(NASA([100.00, 1959.08],
                     [ 3.43536412E+00,  2.12710353E-04, -2.78625043E-07,
                       3.40267167E-10, -7.76031998E-14, -1.03135984E+03,
                      -3.90841732E+00]),
                NASA([1959.08, 5000.00],
                     [ 2.78816583E+00,  5.87640942E-04,  1.59010417E-07,
                      -5.52739026E-11,  4.34310984E-15, -5.96144270E+02,
                       1.12732655E-01])))

species(name=u'C4H6a(79)',
        atoms='H:6 C:4',
        thermo=(NASA([100.00, 950.38],
                     [ 3.41327601E+00, -4.60830638E-03,  9.57205603E-05,
                      -1.18800574E-07,  4.44495312E-11,  1.74039828E+04,
                       1.01517556E+01]),
                NASA([950.38, 5000.00],
                     [ 9.72156091E+00,  1.36879055E-02, -3.93842260E-06,
                       7.58710118E-10, -6.16013131E-14,  1.41795804E+04,
                      -3.06164436E+01])))

species(name=u'C6H10(133)',
        atoms='H:10 C:6',
        thermo=(NASA([100.00, 1020.63],
                     [ 9.97427413E-01,  5.59777045E-02, -2.05880600E-05,
                      -1.17182304E-08,  8.13452041E-12,  6.30749855E+03,
                       2.38941836E+01]),
                NASA([1020.63, 5000.00],
                     [ 1.33828218E+01,  2.83661253E-02, -1.07663110E-05,
                       1.95749020E-09, -1.36589418E-13,  2.68926840E+03,
                      -4.14511818E+01])))

species(name=u'C8H12(134)',
        atoms='H:12 C:8',
        thermo=(NASA([100.00, 1002.94],
                     [ 1.69489980E-02,  7.28189377E-02, -2.16585698E-05,
                      -2.40807783E-08,  1.44597041E-11,  1.38562447E+04,
                       3.07679077E+01]),
                NASA([1002.94, 5000.00],
                     [ 1.77276883E+01,  3.45993801E-02, -1.29781828E-05,
                       2.37500136E-09, -1.67643536E-13,  8.67334638E+03,
                      -6.28559377E+01])))

species(name=u'X(1)',
        atoms='X:1',
        thermo=(NASA([100.00, 1554.80],
                     [ 7.10139498E-03, -4.25619522E-05,  8.98533016E-08,
                      -7.80193649E-11,  2.32465471E-14, -8.76101712E-01,
                      -3.11211229E-02]),
                NASA([1554.80, 5000.00],
                     [ 1.60299900E-01, -2.52235409E-04,  1.14181275E-07,
                      -1.21471653E-11,  3.85790025E-16, -7.08100885E+01,
                      -9.09527530E-01])))

species(name=u'HX(5)',
        atoms='H:1 X:1',
        thermo=(NASA([100.00, 952.91],
                     [-3.80965452E-01,  5.47228709E-03,  2.60912778E-06,
                      -9.64961980E-09,  4.63946753E-12, -7.97198027E+03,
                       1.01725550E+00]),
                NASA([952.91, 5000.00],
                     [ 2.80339655E+00, -5.41047017E-04,  4.99507978E-07,
                      -7.54963647E-11,  3.06772366E-15, -8.91272969E+03,
                      -1.59436787E+01])))

species(name=u'C2H3X(37)',
        atoms='H:3 C:2 X:1',
        thermo=(NASA([100.00, 928.62],
                     [ 3.83091018E+00, -8.76381562E-03,  6.97956896E-05,
                      -8.67969174E-08,  3.33218121E-11,  2.32557546E+03,
                      -1.81151753E+01]),
                NASA([928.62, 5000.00],
                     [ 8.78054562E+00,  1.92497720E-03,  8.25825014E-07,
                      -1.63749818E-10,  5.71728318E-15,  2.61723399E+01,
                      -4.90588618E+01])))

species(name=u'C4H5X(80)',
        atoms='H:5 C:4 X:1',
        thermo=(NASA([100.00, 936.52],
                     [ 2.68471723E+00,  1.36244496E-02,  5.32591849E-05,
                      -8.32912448E-08,  3.41499374E-11,  4.41880565E+03,
                      -1.06510487E+01]),
                NASA([936.52, 5000.00],
                     [ 1.29012266E+01,  8.96921861E-03, -1.71920076E-06,
                       2.89744517E-10, -2.58686364E-14,  7.95766706E+02,
                      -6.83963397E+01])))

species(name=u'C4H5X(81)',
        atoms='H:5 C:4 X:1',
        thermo=(NASA([100.00, 928.63],
                     [ 2.64232495E+00,  8.31109593E-03,  8.12146261E-05,
                      -1.21398701E-07,  4.98630759E-11,  9.60171440E+03,
                      -1.03932963E+01]),
                NASA([928.63, 5000.00],
                     [ 1.69490474E+01,  2.00818812E-03,  2.03468841E-06,
                      -4.02657023E-10,  1.85400094E-14,  4.55922003E+03,
                      -9.11990785E+01])))

species(name=u'C6H9X(98)',
        atoms='H:9 C:6 X:1',
        thermo=(NASA([100.00, 959.61],
                     [ 9.97316280E-01,  5.45668000E-02, -1.20062319E-05,
                      -2.57197904E-08,  1.47243152E-11,  1.16260743E+04,
                       4.10405037E+00]),
                NASA([959.61, 5000.00],
                     [ 1.47073597E+01,  2.48050721E-02, -8.29407345E-06,
                       1.44239761E-09, -1.00346470E-13,  7.73387388E+03,
                      -6.80438434E+01])))

species(name=u'C6H9X(115)',
        atoms='H:9 C:6 X:1',
        thermo=(NASA([100.00, 995.64],
                     [ 1.00158150E+00,  5.37831764E-02, -1.05077719E-05,
                      -2.52898569E-08,  1.36194364E-11,  1.11035811E+04,
                       4.73928304E+00]),
                NASA([995.64, 5000.00],
                     [ 1.48279675E+01,  2.56881420E-02, -9.53965888E-06,
                       1.75504791E-09, -1.24935257E-13,  6.98965617E+03,
                      -6.87379050E+01])))

species(name=u'SX(120)',
        atoms='H:11 C:8 X:1',
        thermo=(NASA([100.00, 970.37],
                     [ 5.31641954E-02,  6.71977456E-02,  4.47858696E-06,
                      -5.81672079E-08,  2.81723287E-11,  1.08698388E+04,
                       9.58558746E+00]),
                NASA([970.37, 5000.00],
                     [ 2.04532936E+01,  2.99983151E-02, -1.05049814E-05,
                       1.92652148E-09, -1.39848135E-13,  4.70294075E+03,
                      -9.95955081E+01])))

species(name=u'SX(121)',
        atoms='H:11 C:8 X:1',
        thermo=(NASA([100.00, 978.48],
                     [-2.03188429E-01,  8.00305318E-02, -4.14445349E-05,
                      -6.30400358E-09,  9.29379676E-12,  1.76124433E+04,
                       9.78673632E+00]),
                NASA([978.48, 5000.00],
                     [ 1.79003688E+01,  3.33652582E-02, -1.18215595E-05,
                       2.07054526E-09, -1.42297664E-13,  1.27607779E+04,
                      -8.38469152E+01])))

species(name=u'C6H9X(124)',
        atoms='H:9 C:6 X:1',
        thermo=(NASA([100.00, 982.39],
                     [ 1.17199359E+00,  4.77160396E-02,  9.26098866E-06,
                      -4.64666332E-08,  2.11967020E-11,  3.38610260E+03,
                       1.23439845E+00]),
                NASA([982.39, 5000.00],
                     [ 1.50560256E+01,  2.55321029E-02, -9.31181137E-06,
                       1.72744250E-09, -1.24865395E-13, -9.99233981E+02,
                      -7.39370609E+01])))

species(name=u'SX(185)',
        atoms='H:11 C:8 X:1',
        thermo=(NASA([100.00, 970.37],
                     [ 5.31641954E-02,  6.71977456E-02,  4.47858696E-06,
                      -5.81672079E-08,  2.81723287E-11,  1.08698388E+04,
                       9.58558746E+00]),
                NASA([970.37, 5000.00],
                     [ 2.04532936E+01,  2.99983151E-02, -1.05049814E-05,
                       1.92652148E-09, -1.39848135E-13,  4.70294075E+03,
                      -9.95955081E+01])))

species(name=u'SX(187)',
        atoms='H:11 C:8 X:1',
        thermo=(NASA([100.00, 971.40],
                     [ 1.41367486E-02,  6.90601635E-02, -2.81822772E-06,
                      -5.01495652E-08,  2.53088732E-11,  1.03303638E+04,
                       7.57445029E+00]),
                NASA([971.40, 5000.00],
                     [ 2.02696999E+01,  2.98290094E-02, -1.04553339E-05,
                       1.90870547E-09, -1.37813094E-13,  4.31084144E+03,
                      -1.00287409E+02])))

species(name=u'SX(190)',
        atoms='H:11 C:8 X:1',
        thermo=(NASA([100.00, 962.24],
                     [-2.35925141E-02,  6.79468626E-02,  5.44319596E-06,
                      -6.22174223E-08,  3.04428701E-11,  1.14466251E+04,
                       7.63931649E+00]),
                NASA([962.24, 5000.00],
                     [ 2.16692086E+01,  2.75469289E-02, -9.17276980E-06,
                       1.66777351E-09, -1.22183122E-13,  4.96746331E+03,
                      -1.08155159E+02])))

species(name=u'SX(296)',
        atoms='H:11 C:8 X:1',
        thermo=(NASA([100.00, 1054.52],
                     [ 9.24544554E-02,  7.30391933E-02, -3.01371653E-05,
                      -1.01280701E-08,  8.20741060E-12,  1.29071423E+04,
                       8.19863865E+00]),
                NASA([1054.52, 5000.00],
                     [ 1.61727971E+01,  3.71408245E-02, -1.47732080E-05,
                       2.72792864E-09, -1.90935160E-13,  8.12028531E+03,
                      -7.68498382E+01])))

species(name=u'SX(323)',
        atoms='H:11 C:8 X:1',
        thermo=(NASA([100.00, 962.39],
                     [ 8.44178698E-02,  6.47457053E-02,  1.48937552E-05,
                      -7.13157837E-08,  3.34340107E-11,  1.02719526E+04,
                       1.32649689E+01]),
                NASA([962.39, 5000.00],
                     [ 2.13385648E+01,  2.84070289E-02, -9.51675223E-06,
                       1.73784217E-09, -1.27632237E-13,  3.77287315E+03,
                      -1.00970374E+02])))

species(name=u'SX(335)',
        atoms='H:11 C:8 X:1',
        thermo=(NASA([100.00, 959.69],
                     [ 5.32257182E-01,  5.42638442E-02,  3.83253839E-05,
                      -9.08752640E-08,  3.93658805E-11,  6.42233607E+03,
                       1.48333248E+01]),
                NASA([959.69, 5000.00],
                     [ 1.90567362E+01,  3.12728594E-02, -1.04852687E-05,
                       1.90261749E-09, -1.38804058E-13,  3.69993825E+02,
                      -8.67827610E+01])))

species(name=u'SX(336)',
        atoms='H:11 C:8 X:1',
        thermo=(NASA([100.00, 964.21],
                     [ 3.33908047E-01,  6.07878253E-02,  1.91680473E-05,
                      -7.07140332E-08,  3.21497067E-11,  6.83768337E+03,
                       9.16201877E+00]),
                NASA([964.21, 5000.00],
                     [ 1.88969456E+01,  3.19796616E-02, -1.09998769E-05,
                       1.98960856E-09, -1.43314947E-13,  1.01737462E+03,
                      -9.13360898E+01])))

species(name=u'SX(337)',
        atoms='H:11 C:8 X:1',
        thermo=(NASA([100.00, 1018.49],
                     [ 7.35963194E-02,  7.17316944E-02, -2.13473053E-05,
                      -2.26301379E-08,  1.34028259E-11,  1.40225686E+04,
                       8.19411083E+00]),
                NASA([1018.49, 5000.00],
                     [ 1.73280327E+01,  3.52579375E-02, -1.37142872E-05,
                       2.53870425E-09, -1.79524650E-13,  8.88492997E+03,
                      -8.33320927E+01])))

species(name=u'SX(339)',
        atoms='H:15 C:10 X:1',
        thermo=(NASA([100.00, 1586.73],
                     [-1.60278193E+00,  1.08534979E-01, -7.71834065E-05,
                       2.80105100E-08, -4.12152906E-12,  1.38726619E+04,
                       2.20450173E+01]),
                NASA([1586.73, 5000.00],
                     [ 2.31739659E+01,  4.60746135E-02, -1.81366548E-05,
                       3.20175435E-09, -2.12713119E-13,  6.00991910E+03,
                      -1.08927095E+02])))

species(name=u'SX(382)',
        atoms='H:11 C:8 X:1',
        thermo=(NASA([100.00, 1018.84],
                     [ 2.32602371E-01,  6.53476510E-02, -5.04671912E-07,
                      -4.42674379E-08,  2.06587941E-11,  2.04395028E+04,
                       1.00681826E+01]),
                NASA([1018.84, 5000.00],
                     [ 1.79596462E+01,  3.52057468E-02, -1.42162245E-05,
                       2.71412159E-09, -1.96100908E-13,  1.47795165E+04,
                      -8.58350150E+01])))

species(name=u'SX(383)',
        atoms='H:11 C:8 X:1',
        thermo=(NASA([100.00, 1058.50],
                     [ 2.77470195E-01,  6.83906587E-02, -1.84619746E-05,
                      -1.98745400E-08,  1.09641166E-11,  1.35117868E+04,
                       8.01780093E+00]),
                NASA([1058.50, 5000.00],
                     [ 1.52783156E+01,  3.91242529E-02, -1.58467373E-05,
                       2.95219223E-09, -2.07524237E-13,  8.79997354E+03,
                      -7.24616507E+01])))

species(name=u'SX(387)',
        atoms='H:15 C:10 X:1',
        thermo=(NASA([100.00, 1073.62],
                     [-1.28423204E+00,  9.76519469E-02, -3.70760804E-05,
                      -1.71941544E-08,  1.19276151E-11,  1.44215154E+04,
                       2.06619710E+01]),
                NASA([1073.62, 5000.00],
                     [ 2.12796535E+01,  4.97018063E-02, -2.05425445E-05,
                       3.87224200E-09, -2.73917466E-13,  7.49500415E+03,
                      -9.94924263E+01])))

species(name=u'SX(392)',
        atoms='H:17 C:12 X:1',
        thermo=(NASA([100.00, 1060.63],
                     [-2.40278735E+00,  1.18142314E-01, -4.69820645E-05,
                      -2.04677046E-08,  1.49204323E-11,  1.61767859E+04,
                       2.76952160E+01]),
                NASA([1060.63, 5000.00],
                     [ 2.57628494E+01,  5.66494779E-02, -2.32747155E-05,
                       4.39305952E-09, -3.11826119E-13,  7.68624654E+03,
                      -1.21705935E+02])))

species(name=u'SX(393)',
        atoms='H:17 C:12 X:1',
        thermo=(NASA([100.00, 1037.64],
                     [-2.38828665E+00,  1.18992707E-01, -5.10370789E-05,
                      -1.72864413E-08,  1.45007407E-11,  2.31339836E+04,
                       2.93336555E+01]),
                NASA([1037.64, 5000.00],
                     [ 2.51819885E+01,  5.58025610E-02, -2.19812179E-05,
                       4.06654787E-09, -2.86134321E-13,  1.50926021E+04,
                      -1.15873807E+02])))

species(name=u'SX(397)',
        atoms='H:11 C:8 X:1',
        thermo=(NASA([100.00, 1054.52],
                     [ 9.24544554E-02,  7.30391933E-02, -3.01371653E-05,
                      -1.01280701E-08,  8.20741060E-12,  1.29071423E+04,
                       7.50549147E+00]),
                NASA([1054.52, 5000.00],
                     [ 1.61727971E+01,  3.71408245E-02, -1.47732080E-05,
                       2.72792864E-09, -1.90935160E-13,  8.12028531E+03,
                      -7.75429853E+01])))

species(name=u'SX(412)',
        atoms='H:11 C:8 X:1',
        thermo=(NASA([100.00, 992.83],
                     [ 2.85113302E-01,  6.44366997E-02,  1.22887764E-06,
                      -4.75422510E-08,  2.26051466E-11,  1.25338857E+04,
                       9.36990441E+00]),
                NASA([992.83, 5000.00],
                     [ 1.78282629E+01,  3.37151483E-02, -1.27261251E-05,
                       2.36604341E-09, -1.69758327E-13,  7.08108670E+03,
                      -8.50571993E+01])))

species(name=u'SX(417)',
        atoms='H:15 C:10 X:1',
        thermo=(NASA([100.00, 1586.33],
                     [-1.62346656E+00,  1.08653282E-01, -7.74260068E-05,
                       2.81571266E-08, -4.14872250E-12,  1.40264024E+04,
                       2.21472020E+01]),
                NASA([1586.33, 5000.00],
                     [ 2.33170873E+01,  4.57643011E-02, -1.79592456E-05,
                       3.16567415E-09, -2.10139718E-13,  6.11364929E+03,
                      -1.09684587E+02])))

species(name=u'SX(423)',
        atoms='H:17 C:12 X:1',
        thermo=(NASA([100.00, 1191.59],
                     [-2.69311227E+00,  1.28724364E-01, -8.65700432E-05,
                       2.48160276E-08, -1.47228777E-12,  1.57792756E+04,
                       2.89941392E+01]),
                NASA([1191.59, 5000.00],
                     [ 2.50742732E+01,  5.68079002E-02, -2.28462544E-05,
                       4.16150983E-09, -2.85408655E-13,  7.64999927E+03,
                      -1.16178405E+02])))

species(name=u'SX(424)',
        atoms='H:17 C:12 X:1',
        thermo=(NASA([100.00, 1147.09],
                     [-2.66909853E+00,  1.29524134E-01, -9.07322064E-05,
                       2.85300439E-08, -2.28013021E-12,  2.27359634E+04,
                       3.05942909E+01]),
                NASA([1147.09, 5000.00],
                     [ 2.40118979E+01,  5.67060936E-02, -2.19532443E-05,
                       3.92469881E-09, -2.66857742E-13,  1.52845221E+04,
                      -1.07586255E+02])))

species(name=u'SX(432)',
        atoms='H:15 C:10 X:1',
        thermo=(NASA([100.00, 1056.99],
                     [-1.26477600E+00,  9.85299781E-02, -4.23784836E-05,
                      -1.17909850E-08,  1.04364758E-11,  1.34926623E+04,
                       2.26742242E+01]),
                NASA([1056.99, 5000.00],
                     [ 2.05636386E+01,  4.91995297E-02, -1.95945824E-05,
                       3.62278033E-09, -2.53757072E-13,  7.01936616E+03,
                      -9.26380641E+01])))

species(name=u'C6H9X(441)',
        atoms='H:9 C:6 X:1',
        thermo=(NASA([100.00, 973.86],
                     [ 9.93837756E-01,  5.22731950E-02, -2.04237505E-06,
                      -3.72834276E-08,  1.87182448E-11,  3.32364106E+03,
                       7.46169215E-01]),
                NASA([973.86, 5000.00],
                     [ 1.59749061E+01,  2.35119815E-02, -8.21905871E-06,
                       1.49896743E-09, -1.07947310E-13, -1.14829045E+03,
                      -7.91107508E+01])))

species(name=u'C6H9X(457)',
        atoms='H:9 C:6 X:1',
        thermo=(NASA([100.00, 944.03],
                     [ 1.50274111E+00,  3.39062369E-02,  5.74106466E-05,
                      -1.03068261E-07,  4.32458954E-11, -1.59084491E+03,
                       6.35756273E+00]),
                NASA([944.03, 5000.00],
                     [ 1.71767347E+01,  2.05443400E-02, -5.65216664E-06,
                       9.93357808E-10, -7.58667896E-14, -6.91415545E+03,
                      -8.08781643E+01])))

species(name=u'C6H9X(458)',
        atoms='H:9 C:6 X:1',
        thermo=(NASA([100.00, 1255.20],
                     [ 1.52447209E+00,  4.66103126E-02, -6.16097139E-06,
                      -1.35483363E-08,  5.32040290E-12,  6.53136033E+02,
                       6.56680419E-01]),
                NASA([1255.20, 5000.00],
                     [ 9.78683421E+00,  3.78121855E-02, -1.65981390E-05,